/*---------------------------------------------------------------------------*\
| =========                 |                                                 |
| \\      /  F ield         | OpenFOAM: The Open Source CFD Toolbox           |
|  \\    /   O peration     | Version:  v2012                                 |
|   \\  /    A nd           | Website:  www.openfoam.com                      |
|    \\/     M anipulation  |                                                 |
\*---------------------------------------------------------------------------*/
Build  : _7bdb509494-20201222 OPENFOAM=2012
Arch   : "LSB;label=32;scalar=64"
Exec   : interPhaseChangeFoam -parallel
Date   : Jan 08 2021
Time   : 17:20:49
Host   : luc-desktop
PID    : 724
I/O    : uncollated
Case   : /mnt/c/Users/luc/OneDrive/Documents/openfoam/injectorCFDModelling/injector2degHex/case
nProcs : 6
Hosts  :
(
    (luc-desktop 6)
)
Pstream initialized with:
    floatTransfer      : 0
    nProcsSimpleSum    : 0
    commsType          : nonBlocking
    polling iterations : 0
trapFpe: Floating point exception trapping enabled (FOAM_SIGFPE).
fileModificationChecking : Monitoring run-time modified files using timeStampMaster (fileModificationSkew 5, maxFileModificationPolls 20)
allowSystemOperations : Allowing user-supplied system call operations

// * * * * * * * * * * * * * * * * * * * * * * * * * * * * * * * * * * * * * //
Create time

Create mesh for time = 0


PIMPLE: Operating solver in PISO mode

Reading field p_rgh

Reading field U

Reading/calculating face flux field phi

--> FOAM Warning : 
    From bool Foam::IOobject::typeHeaderOk(bool, bool, bool) [with Type = Foam::GeometricField<double, Foam::fvsPatchField, Foam::surfaceMesh>]
    in file /home/pawan/OpenFOAM/OpenFOAM/OpenFOAM-v2012/src/OpenFOAM/lnInclude/IOobjectTemplates.C at line 67
    unexpected class name volScalarField expected surfaceScalarField when reading "/mnt/c/Users/luc/OneDrive/Documents/openfoam/injectorCFDModelling/injector2degHex/case/processor0/0/phi"
Creating phaseChangeTwoPhaseMixture

Selecting phaseChange model SchnerrSauer
Selecting incompressible transport model Newtonian
Selecting incompressible transport model Newtonian
Selecting turbulence model type laminar
Selecting laminar stress model Stokes

Reading g

Reading hRef
Calculating field g.h

No finite volume options present
Courant Number mean: 0 max: 0

Starting time loop

Courant Number mean: 0 max: 0
deltaT = 0.00125
Time = 0.00125

PIMPLE: iteration 1
smoothSolver:  Solving for alpha.water, Initial residual = 0.920638, Final residual = 2.25479e-18, No Iterations 1
Phase-1 volume fraction = 0.0288066  Min(alpha.water) = 0  Max(alpha.water) = 1
MULES: Correcting alpha.water
MULES: Correcting alpha.water
Liquid phase volume fraction = 0.0288066  Min(alpha.water) = 0  Max(alpha.water) = 1
GAMG:  Solving for p_rgh, Initial residual = 1, Final residual = 0.00510722, No Iterations 1
GAMG:  Solving for p_rgh, Initial residual = 0.00663344, Final residual = 2.532e-05, No Iterations 1
GAMGPCG:  Solving for p_rgh, Initial residual = 0.000676398, Final residual = 7.88464e-08, No Iterations 3
ExecutionTime = 0.11 s  ClockTime = 0 s

Courant Number mean: 63.9528 max: 2578.94
deltaT = 2.42315e-06
Time = 0.00125242

PIMPLE: iteration 1
smoothSolver:  Solving for alpha.water, Initial residual = 0.523865, Final residual = 4.1559e-09, No Iterations 2
Phase-1 volume fraction = 0.0126443  Min(alpha.water) = -1.26064  Max(alpha.water) = 1
MULES: Correcting alpha.water
MULES: Correcting alpha.water
Liquid phase volume fraction = 0.01266  Min(alpha.water) = -1.26064  Max(alpha.water) = 1
GAMG:  Solving for p_rgh, Initial residual = 0.00433734, Final residual = 5.55118e-06, No Iterations 1
GAMG:  Solving for p_rgh, Initial residual = 0.00165204, Final residual = 5.58724e-06, No Iterations 1
GAMGPCG:  Solving for p_rgh, Initial residual = 0.000644882, Final residual = 9.28109e-08, No Iterations 1
ExecutionTime = 0.16 s  ClockTime = 0 s

Courant Number mean: 0.0815924 max: 2.69868
deltaT = 2.87182e-06
Time = 0.00125529

PIMPLE: iteration 1
smoothSolver:  Solving for alpha.water, Initial residual = 0.30057, Final residual = 6.93732e-11, No Iterations 3
Phase-1 volume fraction = -0.0209832  Min(alpha.water) = -4.84453  Max(alpha.water) = 1
MULES: Correcting alpha.water
MULES: Correcting alpha.water
Liquid phase volume fraction = -0.0209646  Min(alpha.water) = -4.84453  Max(alpha.water) = 1
GAMG:  Solving for p_rgh, Initial residual = 0.00228059, Final residual = 1.6815e-05, No Iterations 1
GAMG:  Solving for p_rgh, Initial residual = 0.00171009, Final residual = 1.21453e-05, No Iterations 1
GAMGPCG:  Solving for p_rgh, Initial residual = 0.000612468, Final residual = 6.58243e-08, No Iterations 3
ExecutionTime = 0.21 s  ClockTime = 0 s

Courant Number mean: 0.0754561 max: 4.1251
deltaT = 3.2197e-06
Time = 0.00125851

PIMPLE: iteration 1
smoothSolver:  Solving for alpha.water, Initial residual = 0.123932, Final residual = 5.22821e-09, No Iterations 4
Phase-1 volume fraction = -0.0398244  Min(alpha.water) = -7.78971  Max(alpha.water) = 1
MULES: Correcting alpha.water
MULES: Correcting alpha.water
Liquid phase volume fraction = -0.0398088  Min(alpha.water) = -7.78971  Max(alpha.water) = 1
GAMG:  Solving for p_rgh, Initial residual = 0.00249128, Final residual = 0.000117523, No Iterations 1
GAMG:  Solving for p_rgh, Initial residual = 0.00148569, Final residual = 2.53943e-05, No Iterations 1
GAMGPCG:  Solving for p_rgh, Initial residual = 0.000694912, Final residual = 3.98761e-08, No Iterations 5
ExecutionTime = 0.32 s  ClockTime = 0 s

Courant Number mean: 0.121268 max: 13.1562
deltaT = 1.22361e-06
Time = 0.00125974

PIMPLE: iteration 1
smoothSolver:  Solving for alpha.water, Initial residual = 0.0470338, Final residual = 5.21252e-09, No Iterations 4
Phase-1 volume fraction = -0.0478699  Min(alpha.water) = -9.17621  Max(alpha.water) = 1
MULES: Correcting alpha.water
MULES: Correcting alpha.water
Liquid phase volume fraction = -0.047861  Min(alpha.water) = -9.14947  Max(alpha.water) = 1
GAMG:  Solving for p_rgh, Initial residual = 0.00194531, Final residual = 1.58592e-05, No Iterations 1
GAMG:  Solving for p_rgh, Initial residual = 0.00083502, Final residual = 1.11046e-05, No Iterations 1
GAMGPCG:  Solving for p_rgh, Initial residual = 0.00041276, Final residual = 4.47361e-08, No Iterations 6
ExecutionTime = 0.38 s  ClockTime = 0 s

Courant Number mean: 0.0518661 max: 6.68857
deltaT = 9.14732e-07
Time = 0.00126065

PIMPLE: iteration 1
smoothSolver:  Solving for alpha.water, Initial residual = 0.0338031, Final residual = 1.85701e-09, No Iterations 5
Phase-1 volume fraction = -0.0539365  Min(alpha.water) = -12.0495  Max(alpha.water) = 1
MULES: Correcting alpha.water
MULES: Correcting alpha.water
Liquid phase volume fraction = -0.0539281  Min(alpha.water) = -12.0495  Max(alpha.water) = 1
GAMG:  Solving for p_rgh, Initial residual = 0.00131714, Final residual = 3.36157e-05, No Iterations 1
GAMG:  Solving for p_rgh, Initial residual = 0.000707826, Final residual = 1.12861e-05, No Iterations 1
GAMGPCG:  Solving for p_rgh, Initial residual = 0.000352549, Final residual = 7.37649e-08, No Iterations 5
ExecutionTime = 0.43 s  ClockTime = 0 s

Courant Number mean: 0.0423127 max: 10.393
deltaT = 4.4007e-07
Time = 0.00126109

PIMPLE: iteration 1
smoothSolver:  Solving for alpha.water, Initial residual = 0.0157679, Final residual = 2.73628e-09, No Iterations 6
Phase-1 volume fraction = -0.0568814  Min(alpha.water) = -15.3029  Max(alpha.water) = 1
MULES: Correcting alpha.water
MULES: Correcting alpha.water
Liquid phase volume fraction = -0.0568779  Min(alpha.water) = -15.3029  Max(alpha.water) = 1
GAMG:  Solving for p_rgh, Initial residual = 0.000962068, Final residual = 1.33257e-05, No Iterations 1
GAMG:  Solving for p_rgh, Initial residual = 0.000469537, Final residual = 9.51106e-06, No Iterations 1
GAMGPCG:  Solving for p_rgh, Initial residual = 0.00022817, Final residual = 2.76506e-08, No Iterations 8
ExecutionTime = 0.47 s  ClockTime = 0 s

Courant Number mean: 0.0213851 max: 8.35186
deltaT = 2.63458e-07
Time = 0.00126136

PIMPLE: iteration 1
smoothSolver:  Solving for alpha.water, Initial residual = 0.00940795, Final residual = 4.9974e-09, No Iterations 5
Phase-1 volume fraction = -0.0586668  Min(alpha.water) = -20.5199  Max(alpha.water) = 1
MULES: Correcting alpha.water
MULES: Correcting alpha.water
Liquid phase volume fraction = -0.0586654  Min(alpha.water) = -20.5199  Max(alpha.water) = 1
GAMG:  Solving for p_rgh, Initial residual = 0.000672198, Final residual = 8.35057e-06, No Iterations 1
GAMG:  Solving for p_rgh, Initial residual = 0.00033071, Final residual = 5.51615e-06, No Iterations 1
GAMGPCG:  Solving for p_rgh, Initial residual = 0.000162238, Final residual = 5.917e-08, No Iterations 8
ExecutionTime = 0.51 s  ClockTime = 0 s

Courant Number mean: 0.0132177 max: 10.0392
deltaT = 1.31215e-07
Time = 0.00126149

PIMPLE: iteration 1
smoothSolver:  Solving for alpha.water, Initial residual = 0.00471753, Final residual = 6.04066e-10, No Iterations 4
Phase-1 volume fraction = -0.0595659  Min(alpha.water) = -30.0873  Max(alpha.water) = 1
MULES: Correcting alpha.water
MULES: Correcting alpha.water
Liquid phase volume fraction = -0.0595653  Min(alpha.water) = -30.0873  Max(alpha.water) = 1
GAMG:  Solving for p_rgh, Initial residual = 0.000482952, Final residual = 5.60522e-06, No Iterations 1
GAMG:  Solving for p_rgh, Initial residual = 0.00020533, Final residual = 6.13656e-06, No Iterations 1
GAMGPCG:  Solving for p_rgh, Initial residual = 0.000101497, Final residual = 5.52298e-08, No Iterations 8
ExecutionTime = 0.56 s  ClockTime = 1 s

Courant Number mean: 0.00672752 max: 10.8486
deltaT = 6.04754e-08
Time = 0.00126155

PIMPLE: iteration 1
smoothSolver:  Solving for alpha.water, Initial residual = 0.0022308, Final residual = 6.91622e-10, No Iterations 4
Phase-1 volume fraction = -0.0599832  Min(alpha.water) = -18.2203  Max(alpha.water) = 1
MULES: Correcting alpha.water
MULES: Correcting alpha.water
Liquid phase volume fraction = -0.0599829  Min(alpha.water) = -18.2203  Max(alpha.water) = 1
GAMG:  Solving for p_rgh, Initial residual = 0.000295021, Final residual = 7.19826e-06, No Iterations 1
GAMG:  Solving for p_rgh, Initial residual = 0.000167404, Final residual = 1.20058e-05, No Iterations 1
GAMGPCG:  Solving for p_rgh, Initial residual = 0.000101386, Final residual = 4.65743e-08, No Iterations 10
ExecutionTime = 0.62 s  ClockTime = 1 s

Courant Number mean: 0.00313774 max: 6.04286
deltaT = 5.00387e-08
Time = 0.0012616

PIMPLE: iteration 1
smoothSolver:  Solving for alpha.water, Initial residual = 0.00195797, Final residual = 2.36506e-09, No Iterations 4
Phase-1 volume fraction = -0.0603284  Min(alpha.water) = -10.867  Max(alpha.water) = 1
MULES: Correcting alpha.water
MULES: Correcting alpha.water
Liquid phase volume fraction = -0.0603282  Min(alpha.water) = -10.867  Max(alpha.water) = 1
GAMG:  Solving for p_rgh, Initial residual = 0.00346604, Final residual = 6.8111e-05, No Iterations 1
GAMG:  Solving for p_rgh, Initial residual = 0.00429725, Final residual = 0.000241429, No Iterations 1
GAMGPCG:  Solving for p_rgh, Initial residual = 0.00258496, Final residual = 4.82663e-08, No Iterations 10
ExecutionTime = 0.67 s  ClockTime = 1 s

Courant Number mean: 0.00261511 max: 5.46981
deltaT = 4.57407e-08
Time = 0.00126164

PIMPLE: iteration 1
smoothSolver:  Solving for alpha.water, Initial residual = 0.00165872, Final residual = 4.02979e-10, No Iterations 4
Phase-1 volume fraction = -0.0606426  Min(alpha.water) = -10.9135  Max(alpha.water) = 1
MULES: Correcting alpha.water
MULES: Correcting alpha.water
Liquid phase volume fraction = -0.0606425  Min(alpha.water) = -10.9135  Max(alpha.water) = 1
GAMG:  Solving for p_rgh, Initial residual = 0.00140104, Final residual = 0.000102696, No Iterations 2
GAMG:  Solving for p_rgh, Initial residual = 0.000512221, Final residual = 5.08754e-05, No Iterations 2
GAMGPCG:  Solving for p_rgh, Initial residual = 0.00018002, Final residual = 3.89136e-08, No Iterations 9
ExecutionTime = 0.72 s  ClockTime = 1 s

Courant Number mean: 0.00242227 max: 6.86789
deltaT = 3.33004e-08
Time = 0.00126168

PIMPLE: iteration 1
smoothSolver:  Solving for alpha.water, Initial residual = 0.001198, Final residual = 8.84287e-10, No Iterations 4
Phase-1 volume fraction = -0.060871  Min(alpha.water) = -10.9473  Max(alpha.water) = 1
MULES: Correcting alpha.water
MULES: Correcting alpha.water
Liquid phase volume fraction = -0.060871  Min(alpha.water) = -10.9473  Max(alpha.water) = 1
GAMG:  Solving for p_rgh, Initial residual = 0.000536673, Final residual = 3.53185e-05, No Iterations 1
GAMG:  Solving for p_rgh, Initial residual = 0.000213105, Final residual = 1.80978e-05, No Iterations 1
GAMGPCG:  Solving for p_rgh, Initial residual = 0.000126356, Final residual = 5.53272e-08, No Iterations 6
ExecutionTime = 0.77 s  ClockTime = 1 s

Courant Number mean: 0.00178299 max: 5.54575
deltaT = 3.00233e-08
Time = 0.00126171

PIMPLE: iteration 1
smoothSolver:  Solving for alpha.water, Initial residual = 0.0010738, Final residual = 1.94482e-09, No Iterations 4
Phase-1 volume fraction = -0.0610768  Min(alpha.water) = -10.9778  Max(alpha.water) = 1
MULES: Correcting alpha.water
MULES: Correcting alpha.water
Liquid phase volume fraction = -0.0610768  Min(alpha.water) = -10.9778  Max(alpha.water) = 1
GAMG:  Solving for p_rgh, Initial residual = 0.000188778, Final residual = 7.34014e-06, No Iterations 1
GAMG:  Solving for p_rgh, Initial residual = 0.000113132, Final residual = 1.06696e-05, No Iterations 1
GAMGPCG:  Solving for p_rgh, Initial residual = 7.77432e-05, Final residual = 1.97755e-08, No Iterations 6
ExecutionTime = 0.82 s  ClockTime = 1 s

Courant Number mean: 0.00161993 max: 4.19167
deltaT = 3.36047e-08
Time = 0.00126174

PIMPLE: iteration 1
smoothSolver:  Solving for alpha.water, Initial residual = 0.00119235, Final residual = 2.12116e-10, No Iterations 4
Phase-1 volume fraction = -0.0613068  Min(alpha.water) = -11.012  Max(alpha.water) = 1
MULES: Correcting alpha.water
MULES: Correcting alpha.water
Liquid phase volume fraction = -0.0613068  Min(alpha.water) = -11.012  Max(alpha.water) = 1
GAMG:  Solving for p_rgh, Initial residual = 0.000209749, Final residual = 8.11133e-06, No Iterations 1
GAMG:  Solving for p_rgh, Initial residual = 0.000108798, Final residual = 6.32189e-06, No Iterations 1
GAMGPCG:  Solving for p_rgh, Initial residual = 5.90461e-05, Final residual = 1.85988e-08, No Iterations 5
ExecutionTime = 0.86 s  ClockTime = 1 s

Courant Number mean: 0.00183034 max: 4.71081
deltaT = 3.56677e-08
Time = 0.00126178

PIMPLE: iteration 1
smoothSolver:  Solving for alpha.water, Initial residual = 0.00126155, Final residual = 6.81824e-10, No Iterations 4
Phase-1 volume fraction = -0.0615504  Min(alpha.water) = -11.0483  Max(alpha.water) = 1
MULES: Correcting alpha.water
MULES: Correcting alpha.water
Liquid phase volume fraction = -0.0615503  Min(alpha.water) = -11.0483  Max(alpha.water) = 1
GAMG:  Solving for p_rgh, Initial residual = 0.00017043, Final residual = 2.69703e-06, No Iterations 1
GAMG:  Solving for p_rgh, Initial residual = 9.15984e-05, Final residual = 3.64373e-06, No Iterations 1
GAMGPCG:  Solving for p_rgh, Initial residual = 5.26731e-05, Final residual = 3.47422e-08, No Iterations 5
ExecutionTime = 0.91 s  ClockTime = 1 s

Courant Number mean: 0.00195946 max: 4.81276
deltaT = 3.70553e-08
Time = 0.00126181

PIMPLE: iteration 1
smoothSolver:  Solving for alpha.water, Initial residual = 0.00130245, Final residual = 9.36608e-10, No Iterations 4
Phase-1 volume fraction = -0.0618027  Min(alpha.water) = -11.086  Max(alpha.water) = 1
MULES: Correcting alpha.water
MULES: Correcting alpha.water
Liquid phase volume fraction = -0.0618026  Min(alpha.water) = -11.086  Max(alpha.water) = 1
GAMG:  Solving for p_rgh, Initial residual = 0.00016978, Final residual = 4.14614e-06, No Iterations 1
GAMG:  Solving for p_rgh, Initial residual = 9.21927e-05, Final residual = 4.42795e-06, No Iterations 1
GAMGPCG:  Solving for p_rgh, Initial residual = 5.42942e-05, Final residual = 1.86388e-08, No Iterations 6
ExecutionTime = 0.94 s  ClockTime = 1 s

Courant Number mean: 0.0020506 max: 4.15256
deltaT = 4.15169e-08
Time = 0.00126186

PIMPLE: iteration 1
smoothSolver:  Solving for alpha.water, Initial residual = 0.0014595, Final residual = 6.56395e-10, No Iterations 4
Phase-1 volume fraction = -0.0620847  Min(alpha.water) = -11.1283  Max(alpha.water) = 1
MULES: Correcting alpha.water
MULES: Correcting alpha.water
Liquid phase volume fraction = -0.0620845  Min(alpha.water) = -11.1283  Max(alpha.water) = 1
GAMG:  Solving for p_rgh, Initial residual = 0.000193129, Final residual = 3.52703e-06, No Iterations 1
GAMG:  Solving for p_rgh, Initial residual = 0.000104822, Final residual = 3.78614e-06, No Iterations 1
GAMGPCG:  Solving for p_rgh, Initial residual = 5.95628e-05, Final residual = 9.1219e-08, No Iterations 4
ExecutionTime = 0.99 s  ClockTime = 1 s

Courant Number mean: 0.00231615 max: 4.71824
deltaT = 4.39961e-08
Time = 0.0012619

PIMPLE: iteration 1
smoothSolver:  Solving for alpha.water, Initial residual = 0.00154148, Final residual = 7.96029e-10, No Iterations 4
Phase-1 volume fraction = -0.0623825  Min(alpha.water) = -11.1733  Max(alpha.water) = 1
MULES: Correcting alpha.water
MULES: Correcting alpha.water
Liquid phase volume fraction = -0.0623824  Min(alpha.water) = -11.1733  Max(alpha.water) = 1
GAMG:  Solving for p_rgh, Initial residual = 0.000227519, Final residual = 3.41945e-06, No Iterations 1
GAMG:  Solving for p_rgh, Initial residual = 0.000121356, Final residual = 3.28033e-06, No Iterations 1
GAMGPCG:  Solving for p_rgh, Initial residual = 6.79312e-05, Final residual = 4.70293e-08, No Iterations 3
ExecutionTime = 1.03 s  ClockTime = 1 s

Courant Number mean: 0.00247262 max: 5.08947
deltaT = 4.32226e-08
Time = 0.00126194

PIMPLE: iteration 1
smoothSolver:  Solving for alpha.water, Initial residual = 0.00150655, Final residual = 1.89414e-09, No Iterations 4
Phase-1 volume fraction = -0.0626744  Min(alpha.water) = -11.2174  Max(alpha.water) = 1
MULES: Correcting alpha.water
MULES: Correcting alpha.water
Liquid phase volume fraction = -0.0626743  Min(alpha.water) = -11.2174  Max(alpha.water) = 1
GAMG:  Solving for p_rgh, Initial residual = 0.000229966, Final residual = 3.10225e-06, No Iterations 1
GAMG:  Solving for p_rgh, Initial residual = 0.000126571, Final residual = 3.71248e-06, No Iterations 1
GAMGPCG:  Solving for p_rgh, Initial residual = 6.97367e-05, Final residual = 1.5453e-08, No Iterations 3
ExecutionTime = 1.06 s  ClockTime = 1 s

Courant Number mean: 0.00244788 max: 5.02958
deltaT = 4.29684e-08
Time = 0.00126199

PIMPLE: iteration 1
smoothSolver:  Solving for alpha.water, Initial residual = 0.00149168, Final residual = 1.71494e-09, No Iterations 4
Phase-1 volume fraction = -0.062964  Min(alpha.water) = -11.2614  Max(alpha.water) = 1
MULES: Correcting alpha.water
MULES: Correcting alpha.water
Liquid phase volume fraction = -0.062964  Min(alpha.water) = -11.2614  Max(alpha.water) = 1
GAMG:  Solving for p_rgh, Initial residual = 0.000230207, Final residual = 2.33257e-06, No Iterations 1
GAMG:  Solving for p_rgh, Initial residual = 0.000126359, Final residual = 2.81021e-06, No Iterations 1
GAMGPCG:  Solving for p_rgh, Initial residual = 7.08264e-05, Final residual = 9.55281e-08, No Iterations 3
ExecutionTime = 1.11 s  ClockTime = 1 s

Courant Number mean: 0.0024562 max: 5.1311
deltaT = 4.18706e-08
Time = 0.00126203

PIMPLE: iteration 1
smoothSolver:  Solving for alpha.water, Initial residual = 0.00144672, Final residual = 1.70577e-09, No Iterations 4
Phase-1 volume fraction = -0.0632455  Min(alpha.water) = -11.3043  Max(alpha.water) = 1
MULES: Correcting alpha.water
MULES: Correcting alpha.water
Liquid phase volume fraction = -0.0632454  Min(alpha.water) = -11.3043  Max(alpha.water) = 1
GAMG:  Solving for p_rgh, Initial residual = 0.000239275, Final residual = 2.23167e-06, No Iterations 1
GAMG:  Solving for p_rgh, Initial residual = 0.00012747, Final residual = 3.02277e-06, No Iterations 1
GAMGPCG:  Solving for p_rgh, Initial residual = 7.3144e-05, Final residual = 5.24612e-08, No Iterations 4
ExecutionTime = 1.16 s  ClockTime = 1 s

Courant Number mean: 0.00241322 max: 5.12935
deltaT = 4.08147e-08
Time = 0.00126207

PIMPLE: iteration 1
smoothSolver:  Solving for alpha.water, Initial residual = 0.00140092, Final residual = 2.42224e-09, No Iterations 4
Phase-1 volume fraction = -0.0635191  Min(alpha.water) = -11.3462  Max(alpha.water) = 1
MULES: Correcting alpha.water
MULES: Correcting alpha.water
Liquid phase volume fraction = -0.0635191  Min(alpha.water) = -11.3462  Max(alpha.water) = 1
GAMG:  Solving for p_rgh, Initial residual = 0.000252375, Final residual = 2.61565e-06, No Iterations 1
GAMG:  Solving for p_rgh, Initial residual = 0.000139071, Final residual = 3.08105e-06, No Iterations 1
GAMGPCG:  Solving for p_rgh, Initial residual = 7.64352e-05, Final residual = 4.18431e-08, No Iterations 4
ExecutionTime = 1.19 s  ClockTime = 1 s

Courant Number mean: 0.0023714 max: 5.12971
deltaT = 3.97826e-08
Time = 0.00126211

PIMPLE: iteration 1
smoothSolver:  Solving for alpha.water, Initial residual = 0.00135663, Final residual = 3.13705e-09, No Iterations 4
Phase-1 volume fraction = -0.0637853  Min(alpha.water) = -11.387  Max(alpha.water) = 1
MULES: Correcting alpha.water
MULES: Correcting alpha.water
Liquid phase volume fraction = -0.0637853  Min(alpha.water) = -11.387  Max(alpha.water) = 1
GAMG:  Solving for p_rgh, Initial residual = 0.000252865, Final residual = 2.34941e-06, No Iterations 1
GAMG:  Solving for p_rgh, Initial residual = 0.000134403, Final residual = 2.52304e-06, No Iterations 1
GAMGPCG:  Solving for p_rgh, Initial residual = 7.33926e-05, Final residual = 9.59886e-08, No Iterations 4
ExecutionTime = 1.24 s  ClockTime = 1 s

Courant Number mean: 0.00233051 max: 5.13105
deltaT = 3.87665e-08
Time = 0.00126215

PIMPLE: iteration 1
smoothSolver:  Solving for alpha.water, Initial residual = 0.00131466, Final residual = 3.59702e-09, No Iterations 4
Phase-1 volume fraction = -0.0640443  Min(alpha.water) = -11.4268  Max(alpha.water) = 1
MULES: Correcting alpha.water
MULES: Correcting alpha.water
Liquid phase volume fraction = -0.0640443  Min(alpha.water) = -11.4268  Max(alpha.water) = 1
GAMG:  Solving for p_rgh, Initial residual = 0.000237426, Final residual = 2.36737e-06, No Iterations 1
GAMG:  Solving for p_rgh, Initial residual = 0.000135622, Final residual = 3.34339e-06, No Iterations 1
GAMGPCG:  Solving for p_rgh, Initial residual = 7.28e-05, Final residual = 5.85329e-08, No Iterations 4
ExecutionTime = 1.27 s  ClockTime = 1 s

Courant Number mean: 0.00229036 max: 5.13096
deltaT = 3.77771e-08
Time = 0.00126218

PIMPLE: iteration 1
smoothSolver:  Solving for alpha.water, Initial residual = 0.00127315, Final residual = 3.12926e-09, No Iterations 4
Phase-1 volume fraction = -0.0642963  Min(alpha.water) = -11.4657  Max(alpha.water) = 1
MULES: Correcting alpha.water
MULES: Correcting alpha.water
Liquid phase volume fraction = -0.0642962  Min(alpha.water) = -11.4657  Max(alpha.water) = 1
GAMG:  Solving for p_rgh, Initial residual = 0.000237201, Final residual = 2.02507e-06, No Iterations 1
GAMG:  Solving for p_rgh, Initial residual = 0.00013375, Final residual = 2.44693e-06, No Iterations 1
GAMGPCG:  Solving for p_rgh, Initial residual = 7.31917e-05, Final residual = 8.49443e-09, No Iterations 5
ExecutionTime = 1.32 s  ClockTime = 1 s

Courant Number mean: 0.00225137 max: 5.13223
deltaT = 3.68038e-08
Time = 0.00126222

PIMPLE: iteration 1
smoothSolver:  Solving for alpha.water, Initial residual = 0.00123294, Final residual = 2.87075e-09, No Iterations 4
Phase-1 volume fraction = -0.0645413  Min(alpha.water) = -11.5036  Max(alpha.water) = 1
MULES: Correcting alpha.water
MULES: Correcting alpha.water
Liquid phase volume fraction = -0.0645412  Min(alpha.water) = -11.5036  Max(alpha.water) = 1
GAMG:  Solving for p_rgh, Initial residual = 0.000235107, Final residual = 1.79752e-06, No Iterations 1
GAMG:  Solving for p_rgh, Initial residual = 0.000133212, Final residual = 2.23463e-06, No Iterations 1
GAMGPCG:  Solving for p_rgh, Initial residual = 7.19874e-05, Final residual = 5.71972e-08, No Iterations 4
ExecutionTime = 1.36 s  ClockTime = 1 s

Courant Number mean: 0.00221243 max: 5.13388
deltaT = 3.58441e-08
Time = 0.00126226

PIMPLE: iteration 1
smoothSolver:  Solving for alpha.water, Initial residual = 0.00119198, Final residual = 2.87329e-09, No Iterations 4
Phase-1 volume fraction = -0.0647796  Min(alpha.water) = -11.5405  Max(alpha.water) = 1
MULES: Correcting alpha.water
MULES: Correcting alpha.water
Liquid phase volume fraction = -0.0647795  Min(alpha.water) = -11.5405  Max(alpha.water) = 1
GAMG:  Solving for p_rgh, Initial residual = 0.000233347, Final residual = 1.97899e-06, No Iterations 1
GAMG:  Solving for p_rgh, Initial residual = 0.000130215, Final residual = 2.85598e-06, No Iterations 1
GAMGPCG:  Solving for p_rgh, Initial residual = 6.96083e-05, Final residual = 2.7507e-08, No Iterations 4
ExecutionTime = 1.4 s  ClockTime = 1 s

Courant Number mean: 0.0021738 max: 5.13549
deltaT = 3.48983e-08
Time = 0.00126229

PIMPLE: iteration 1
smoothSolver:  Solving for alpha.water, Initial residual = 0.0011549, Final residual = 2.61281e-09, No Iterations 4
Phase-1 volume fraction = -0.0650113  Min(alpha.water) = -11.5765  Max(alpha.water) = 1
MULES: Correcting alpha.water
MULES: Correcting alpha.water
Liquid phase volume fraction = -0.0650112  Min(alpha.water) = -11.5765  Max(alpha.water) = 1
GAMG:  Solving for p_rgh, Initial residual = 0.000225416, Final residual = 1.99118e-06, No Iterations 1
GAMG:  Solving for p_rgh, Initial residual = 0.000127952, Final residual = 2.30422e-06, No Iterations 1
GAMGPCG:  Solving for p_rgh, Initial residual = 6.76475e-05, Final residual = 5.91317e-08, No Iterations 4
ExecutionTime = 1.44 s  ClockTime = 1 s

Courant Number mean: 0.00213502 max: 5.13686
deltaT = 3.39686e-08
Time = 0.00126233

PIMPLE: iteration 1
smoothSolver:  Solving for alpha.water, Initial residual = 0.00111851, Final residual = 2.34599e-09, No Iterations 4
Phase-1 volume fraction = -0.0652365  Min(alpha.water) = -11.6116  Max(alpha.water) = 1
MULES: Correcting alpha.water
MULES: Correcting alpha.water
Liquid phase volume fraction = -0.0652364  Min(alpha.water) = -11.6116  Max(alpha.water) = 1
GAMG:  Solving for p_rgh, Initial residual = 0.000223544, Final residual = 1.36209e-06, No Iterations 1
GAMG:  Solving for p_rgh, Initial residual = 0.000125634, Final residual = 2.51857e-06, No Iterations 1
GAMGPCG:  Solving for p_rgh, Initial residual = 6.66548e-05, Final residual = 8.04662e-08, No Iterations 4
ExecutionTime = 1.48 s  ClockTime = 1 s

Courant Number mean: 0.00209632 max: 5.1383
deltaT = 3.30543e-08
Time = 0.00126236

PIMPLE: iteration 1
smoothSolver:  Solving for alpha.water, Initial residual = 0.00108289, Final residual = 2.50525e-09, No Iterations 4
Phase-1 volume fraction = -0.0654552  Min(alpha.water) = -11.6458  Max(alpha.water) = 1
MULES: Correcting alpha.water
MULES: Correcting alpha.water
Liquid phase volume fraction = -0.0654552  Min(alpha.water) = -11.6458  Max(alpha.water) = 1
GAMG:  Solving for p_rgh, Initial residual = 0.000224659, Final residual = 1.73132e-06, No Iterations 1
GAMG:  Solving for p_rgh, Initial residual = 0.000127485, Final residual = 2.38753e-06, No Iterations 1
GAMGPCG:  Solving for p_rgh, Initial residual = 6.76118e-05, Final residual = 4.71444e-08, No Iterations 4
ExecutionTime = 1.51 s  ClockTime = 1 s

Courant Number mean: 0.00205742 max: 5.13987
deltaT = 3.21548e-08
Time = 0.00126239

PIMPLE: iteration 1
smoothSolver:  Solving for alpha.water, Initial residual = 0.00104907, Final residual = 2.13908e-09, No Iterations 4
Phase-1 volume fraction = -0.0656677  Min(alpha.water) = -11.679  Max(alpha.water) = 1
MULES: Correcting alpha.water
MULES: Correcting alpha.water
Liquid phase volume fraction = -0.0656677  Min(alpha.water) = -11.679  Max(alpha.water) = 1
GAMG:  Solving for p_rgh, Initial residual = 0.000226457, Final residual = 2.04478e-06, No Iterations 1
GAMG:  Solving for p_rgh, Initial residual = 0.000131735, Final residual = 2.21474e-06, No Iterations 1
GAMGPCG:  Solving for p_rgh, Initial residual = 6.87045e-05, Final residual = 9.01388e-08, No Iterations 4
ExecutionTime = 1.56 s  ClockTime = 2 s

Courant Number mean: 0.00201814 max: 5.14143
deltaT = 3.12703e-08
Time = 0.00126242

PIMPLE: iteration 1
smoothSolver:  Solving for alpha.water, Initial residual = 0.0010159, Final residual = 1.81321e-09, No Iterations 4
Phase-1 volume fraction = -0.0658741  Min(alpha.water) = -11.7114  Max(alpha.water) = 1
MULES: Correcting alpha.water
MULES: Correcting alpha.water
Liquid phase volume fraction = -0.0658741  Min(alpha.water) = -11.7114  Max(alpha.water) = 1
GAMG:  Solving for p_rgh, Initial residual = 0.000228968, Final residual = 2.09166e-06, No Iterations 1
GAMG:  Solving for p_rgh, Initial residual = 0.000138351, Final residual = 3.22716e-06, No Iterations 1
GAMGPCG:  Solving for p_rgh, Initial residual = 7.18524e-05, Final residual = 8.87421e-08, No Iterations 4
ExecutionTime = 1.61 s  ClockTime = 2 s

Courant Number mean: 0.00197851 max: 5.143
deltaT = 3.04009e-08
Time = 0.00126245

PIMPLE: iteration 1
smoothSolver:  Solving for alpha.water, Initial residual = 0.000980669, Final residual = 1.80551e-09, No Iterations 4
Phase-1 volume fraction = -0.0660744  Min(alpha.water) = -11.7429  Max(alpha.water) = 1
MULES: Correcting alpha.water
MULES: Correcting alpha.water
Liquid phase volume fraction = -0.0660744  Min(alpha.water) = -11.7429  Max(alpha.water) = 1
GAMG:  Solving for p_rgh, Initial residual = 0.000239074, Final residual = 1.798e-06, No Iterations 1
GAMG:  Solving for p_rgh, Initial residual = 0.000141711, Final residual = 2.62955e-06, No Iterations 1
GAMGPCG:  Solving for p_rgh, Initial residual = 7.35949e-05, Final residual = 5.1267e-08, No Iterations 4
ExecutionTime = 1.64 s  ClockTime = 2 s

Courant Number mean: 0.00193889 max: 5.14462
deltaT = 2.95463e-08
Time = 0.00126248

PIMPLE: iteration 1
smoothSolver:  Solving for alpha.water, Initial residual = 0.000947435, Final residual = 1.5907e-09, No Iterations 4
Phase-1 volume fraction = -0.0662687  Min(alpha.water) = -11.7735  Max(alpha.water) = 1
MULES: Correcting alpha.water
MULES: Correcting alpha.water
Liquid phase volume fraction = -0.0662687  Min(alpha.water) = -11.7735  Max(alpha.water) = 1
GAMG:  Solving for p_rgh, Initial residual = 0.000241683, Final residual = 2.26381e-06, No Iterations 1
GAMG:  Solving for p_rgh, Initial residual = 0.000149346, Final residual = 2.38923e-06, No Iterations 1
GAMGPCG:  Solving for p_rgh, Initial residual = 7.62449e-05, Final residual = 2.16106e-08, No Iterations 6
ExecutionTime = 1.69 s  ClockTime = 2 s

Courant Number mean: 0.00189911 max: 5.14621
deltaT = 2.87068e-08
Time = 0.00126251

PIMPLE: iteration 1
smoothSolver:  Solving for alpha.water, Initial residual = 0.000917977, Final residual = 1.3215e-09, No Iterations 4
Phase-1 volume fraction = -0.0664573  Min(alpha.water) = -11.8033  Max(alpha.water) = 1
MULES: Correcting alpha.water
MULES: Correcting alpha.water
Liquid phase volume fraction = -0.0664573  Min(alpha.water) = -11.8033  Max(alpha.water) = 1
GAMG:  Solving for p_rgh, Initial residual = 0.000248019, Final residual = 2.31345e-06, No Iterations 1
GAMG:  Solving for p_rgh, Initial residual = 0.000156674, Final residual = 3.5842e-06, No Iterations 1
GAMGPCG:  Solving for p_rgh, Initial residual = 7.91266e-05, Final residual = 9.89466e-08, No Iterations 5
ExecutionTime = 1.73 s  ClockTime = 2 s

Courant Number mean: 0.00185942 max: 5.14777
deltaT = 2.78828e-08
Time = 0.00126254

PIMPLE: iteration 1
smoothSolver:  Solving for alpha.water, Initial residual = 0.000887693, Final residual = 1.40573e-09, No Iterations 4
Phase-1 volume fraction = -0.0666401  Min(alpha.water) = -11.8323  Max(alpha.water) = 1
MULES: Correcting alpha.water
MULES: Correcting alpha.water
Liquid phase volume fraction = -0.0666401  Min(alpha.water) = -11.8323  Max(alpha.water) = 1
GAMG:  Solving for p_rgh, Initial residual = 0.000255338, Final residual = 1.88916e-06, No Iterations 1
GAMG:  Solving for p_rgh, Initial residual = 0.000161202, Final residual = 3.0675e-06, No Iterations 1
GAMGPCG:  Solving for p_rgh, Initial residual = 8.31299e-05, Final residual = 4.47736e-08, No Iterations 4
ExecutionTime = 1.78 s  ClockTime = 2 s

Courant Number mean: 0.00181981 max: 5.14928
deltaT = 2.70744e-08
Time = 0.00126257

PIMPLE: iteration 1
smoothSolver:  Solving for alpha.water, Initial residual = 0.000857839, Final residual = 1.2761e-09, No Iterations 4
Phase-1 volume fraction = -0.0668174  Min(alpha.water) = -11.8604  Max(alpha.water) = 1
MULES: Correcting alpha.water
MULES: Correcting alpha.water
Liquid phase volume fraction = -0.0668174  Min(alpha.water) = -11.8604  Max(alpha.water) = 1
GAMG:  Solving for p_rgh, Initial residual = 0.00026909, Final residual = 2.49215e-06, No Iterations 1
GAMG:  Solving for p_rgh, Initial residual = 0.000175145, Final residual = 2.68773e-06, No Iterations 1
GAMGPCG:  Solving for p_rgh, Initial residual = 8.81734e-05, Final residual = 9.4861e-08, No Iterations 5
ExecutionTime = 1.83 s  ClockTime = 2 s

Courant Number mean: 0.00178033 max: 5.1507
deltaT = 2.62823e-08
Time = 0.00126259

PIMPLE: iteration 1
smoothSolver:  Solving for alpha.water, Initial residual = 0.00082957, Final residual = 1.17869e-09, No Iterations 4
Phase-1 volume fraction = -0.0669894  Min(alpha.water) = -11.8877  Max(alpha.water) = 1
MULES: Correcting alpha.water
MULES: Correcting alpha.water
Liquid phase volume fraction = -0.0669894  Min(alpha.water) = -11.8877  Max(alpha.water) = 1
GAMG:  Solving for p_rgh, Initial residual = 0.00028557, Final residual = 2.39815e-06, No Iterations 1
GAMG:  Solving for p_rgh, Initial residual = 0.000191674, Final residual = 4.14764e-06, No Iterations 1
GAMGPCG:  Solving for p_rgh, Initial residual = 9.87006e-05, Final residual = 6.34992e-08, No Iterations 5
ExecutionTime = 1.86 s  ClockTime = 2 s

Courant Number mean: 0.00174107 max: 5.15205
deltaT = 2.55067e-08
Time = 0.00126262

PIMPLE: iteration 1
smoothSolver:  Solving for alpha.water, Initial residual = 0.000800481, Final residual = 1.21252e-09, No Iterations 4
Phase-1 volume fraction = -0.067156  Min(alpha.water) = -11.9143  Max(alpha.water) = 1
MULES: Correcting alpha.water
MULES: Correcting alpha.water
Liquid phase volume fraction = -0.067156  Min(alpha.water) = -11.9143  Max(alpha.water) = 1
GAMG:  Solving for p_rgh, Initial residual = 0.000315825, Final residual = 2.37451e-06, No Iterations 1
GAMG:  Solving for p_rgh, Initial residual = 0.000215143, Final residual = 4.11787e-06, No Iterations 1
GAMGPCG:  Solving for p_rgh, Initial residual = 0.000111024, Final residual = 6.44426e-08, No Iterations 4
ExecutionTime = 1.91 s  ClockTime = 2 s

Courant Number mean: 0.00170226 max: 5.15332
deltaT = 2.47478e-08
Time = 0.00126264

PIMPLE: iteration 1
smoothSolver:  Solving for alpha.water, Initial residual = 0.000772861, Final residual = 1.00707e-09, No Iterations 4
Phase-1 volume fraction = -0.0673174  Min(alpha.water) = -11.94  Max(alpha.water) = 1
MULES: Correcting alpha.water
MULES: Correcting alpha.water
Liquid phase volume fraction = -0.0673174  Min(alpha.water) = -11.94  Max(alpha.water) = 1
GAMG:  Solving for p_rgh, Initial residual = 0.000352228, Final residual = 3.73447e-06, No Iterations 1
GAMG:  Solving for p_rgh, Initial residual = 0.000270107, Final residual = 4.54717e-06, No Iterations 1
GAMGPCG:  Solving for p_rgh, Initial residual = 0.000135228, Final residual = 9.18566e-08, No Iterations 5
ExecutionTime = 1.95 s  ClockTime = 2 s

Courant Number mean: 0.00166374 max: 5.15439
deltaT = 2.40065e-08
Time = 0.00126267

PIMPLE: iteration 1
smoothSolver:  Solving for alpha.water, Initial residual = 0.000746303, Final residual = 1.01629e-09, No Iterations 4
Phase-1 volume fraction = -0.0674738  Min(alpha.water) = -11.965  Max(alpha.water) = 1
MULES: Correcting alpha.water
MULES: Correcting alpha.water
Liquid phase volume fraction = -0.0674739  Min(alpha.water) = -11.965  Max(alpha.water) = 1
GAMG:  Solving for p_rgh, Initial residual = 0.000430819, Final residual = 2.63257e-06, No Iterations 1
GAMG:  Solving for p_rgh, Initial residual = 0.00039357, Final residual = 6.5888e-06, No Iterations 1
GAMGPCG:  Solving for p_rgh, Initial residual = 0.000184953, Final residual = 8.31357e-08, No Iterations 4
ExecutionTime = 1.99 s  ClockTime = 2 s

Courant Number mean: 0.00162581 max: 5.15527
deltaT = 2.32835e-08
Time = 0.00126269

PIMPLE: iteration 1
smoothSolver:  Solving for alpha.water, Initial residual = 0.000718732, Final residual = 1.1007e-09, No Iterations 4
Phase-1 volume fraction = -0.0676252  Min(alpha.water) = -11.9893  Max(alpha.water) = 1
MULES: Correcting alpha.water
MULES: Correcting alpha.water
Liquid phase volume fraction = -0.0676253  Min(alpha.water) = -11.9893  Max(alpha.water) = 1
GAMG:  Solving for p_rgh, Initial residual = 0.000573697, Final residual = 6.05316e-06, No Iterations 1
GAMG:  Solving for p_rgh, Initial residual = 0.000673512, Final residual = 1.5098e-05, No Iterations 1
GAMGPCG:  Solving for p_rgh, Initial residual = 0.000279475, Final residual = 6.72213e-08, No Iterations 4
ExecutionTime = 2.03 s  ClockTime = 2 s

Courant Number mean: 0.00158846 max: 5.156
deltaT = 2.2579e-08
Time = 0.00126271

PIMPLE: iteration 1
smoothSolver:  Solving for alpha.water, Initial residual = 0.00069426, Final residual = 1.07929e-09, No Iterations 4
Phase-1 volume fraction = -0.0677719  Min(alpha.water) = -12.0129  Max(alpha.water) = 1
MULES: Correcting alpha.water
MULES: Correcting alpha.water
Liquid phase volume fraction = -0.067772  Min(alpha.water) = -12.0129  Max(alpha.water) = 1
GAMG:  Solving for p_rgh, Initial residual = 0.000806333, Final residual = 6.08593e-06, No Iterations 1
GAMG:  Solving for p_rgh, Initial residual = 0.00142715, Final residual = 1.98111e-05, No Iterations 1
GAMGPCG:  Solving for p_rgh, Initial residual = 0.000428162, Final residual = 6.7756e-08, No Iterations 4
ExecutionTime = 2.06 s  ClockTime = 2 s

Courant Number mean: 0.00155183 max: 5.1566
deltaT = 2.18933e-08
Time = 0.00126273

PIMPLE: iteration 1
smoothSolver:  Solving for alpha.water, Initial residual = 0.000669966, Final residual = 9.66128e-09, No Iterations 3
Phase-1 volume fraction = -0.0679139  Min(alpha.water) = -12.0357  Max(alpha.water) = 1
MULES: Correcting alpha.water
MULES: Correcting alpha.water
Liquid phase volume fraction = -0.067914  Min(alpha.water) = -12.0357  Max(alpha.water) = 1
GAMG:  Solving for p_rgh, Initial residual = 0.00112458, Final residual = 6.43927e-06, No Iterations 1
GAMG:  Solving for p_rgh, Initial residual = 0.00243403, Final residual = 1.88973e-05, No Iterations 1
GAMGPCG:  Solving for p_rgh, Initial residual = 0.00180555, Final residual = 9.73586e-08, No Iterations 6
ExecutionTime = 2.11 s  ClockTime = 2 s

Courant Number mean: 0.0015159 max: 5.15716
deltaT = 2.12261e-08
Time = 0.00126276

PIMPLE: iteration 1
smoothSolver:  Solving for alpha.water, Initial residual = 0.000647843, Final residual = 9.88924e-09, No Iterations 3
Phase-1 volume fraction = -0.0680514  Min(alpha.water) = -12.0579  Max(alpha.water) = 1
MULES: Correcting alpha.water
MULES: Correcting alpha.water
Liquid phase volume fraction = -0.0680515  Min(alpha.water) = -12.0579  Max(alpha.water) = 1
GAMG:  Solving for p_rgh, Initial residual = 0.002702, Final residual = 2.50559e-05, No Iterations 1
GAMG:  Solving for p_rgh, Initial residual = 0.000655875, Final residual = 1.19991e-05, No Iterations 1
GAMGPCG:  Solving for p_rgh, Initial residual = 0.000671874, Final residual = 2.66859e-08, No Iterations 7
ExecutionTime = 2.16 s  ClockTime = 2 s

Courant Number mean: 0.00148072 max: 5.15762
deltaT = 2.05774e-08
Time = 0.00126278

PIMPLE: iteration 1
smoothSolver:  Solving for alpha.water, Initial residual = 0.000625287, Final residual = 1.09688e-09, No Iterations 4
Phase-1 volume fraction = -0.0681845  Min(alpha.water) = -12.0794  Max(alpha.water) = 1
MULES: Correcting alpha.water
MULES: Correcting alpha.water
Liquid phase volume fraction = -0.0681846  Min(alpha.water) = -12.0794  Max(alpha.water) = 1
GAMG:  Solving for p_rgh, Initial residual = 0.00442434, Final residual = 3.10361e-05, No Iterations 1
GAMG:  Solving for p_rgh, Initial residual = 0.000338248, Final residual = 5.36406e-06, No Iterations 1
GAMGPCG:  Solving for p_rgh, Initial residual = 0.0002569, Final residual = 6.46474e-08, No Iterations 4
ExecutionTime = 2.2 s  ClockTime = 2 s

Courant Number mean: 0.00144629 max: 5.15799
deltaT = 1.99471e-08
Time = 0.0012628

PIMPLE: iteration 1
smoothSolver:  Solving for alpha.water, Initial residual = 0.00060377, Final residual = 9.4944e-09, No Iterations 3
Phase-1 volume fraction = -0.0683134  Min(alpha.water) = -12.1002  Max(alpha.water) = 1
MULES: Correcting alpha.water
MULES: Correcting alpha.water
Liquid phase volume fraction = -0.0683134  Min(alpha.water) = -12.1002  Max(alpha.water) = 1
GAMG:  Solving for p_rgh, Initial residual = 0.00107723, Final residual = 9.65529e-06, No Iterations 1
GAMG:  Solving for p_rgh, Initial residual = 0.000236451, Final residual = 3.73622e-06, No Iterations 1
GAMGPCG:  Solving for p_rgh, Initial residual = 0.00016169, Final residual = 3.8783e-08, No Iterations 5
ExecutionTime = 2.26 s  ClockTime = 2 s

Courant Number mean: 0.00141267 max: 5.15828
deltaT = 1.93351e-08
Time = 0.00126282

PIMPLE: iteration 1
smoothSolver:  Solving for alpha.water, Initial residual = 0.000583126, Final residual = 1.23456e-09, No Iterations 4
Phase-1 volume fraction = -0.0684381  Min(alpha.water) = -12.1204  Max(alpha.water) = 1
MULES: Correcting alpha.water
MULES: Correcting alpha.water
Liquid phase volume fraction = -0.0684382  Min(alpha.water) = -12.1204  Max(alpha.water) = 1
GAMG:  Solving for p_rgh, Initial residual = 0.000612941, Final residual = 2.96316e-06, No Iterations 1
GAMG:  Solving for p_rgh, Initial residual = 0.000166234, Final residual = 1.96179e-06, No Iterations 1
GAMGPCG:  Solving for p_rgh, Initial residual = 0.000110959, Final residual = 2.91063e-08, No Iterations 4
ExecutionTime = 2.29 s  ClockTime = 2 s

Courant Number mean: 0.00137988 max: 5.15852
deltaT = 1.87409e-08
Time = 0.00126283

PIMPLE: iteration 1
smoothSolver:  Solving for alpha.water, Initial residual = 0.000562747, Final residual = 1.39972e-09, No Iterations 4
Phase-1 volume fraction = -0.0685588  Min(alpha.water) = -12.14  Max(alpha.water) = 1
MULES: Correcting alpha.water
MULES: Correcting alpha.water
Liquid phase volume fraction = -0.0685589  Min(alpha.water) = -12.14  Max(alpha.water) = 1
GAMG:  Solving for p_rgh, Initial residual = 0.000408787, Final residual = 4.00766e-06, No Iterations 1
GAMG:  Solving for p_rgh, Initial residual = 0.000134983, Final residual = 2.44694e-06, No Iterations 1
GAMGPCG:  Solving for p_rgh, Initial residual = 8.45294e-05, Final residual = 6.65538e-08, No Iterations 4
ExecutionTime = 2.35 s  ClockTime = 2 s

Courant Number mean: 0.00134796 max: 5.15873
deltaT = 1.81643e-08
Time = 0.00126285

PIMPLE: iteration 1
smoothSolver:  Solving for alpha.water, Initial residual = 0.000543405, Final residual = 1.58502e-09, No Iterations 4
Phase-1 volume fraction = -0.0686756  Min(alpha.water) = -12.159  Max(alpha.water) = 1
MULES: Correcting alpha.water
MULES: Correcting alpha.water
Liquid phase volume fraction = -0.0686757  Min(alpha.water) = -12.159  Max(alpha.water) = 1
GAMG:  Solving for p_rgh, Initial residual = 0.000302845, Final residual = 1.99047e-06, No Iterations 1
GAMG:  Solving for p_rgh, Initial residual = 0.00010367, Final residual = 1.69705e-06, No Iterations 1
GAMGPCG:  Solving for p_rgh, Initial residual = 6.59986e-05, Final residual = 1.69953e-08, No Iterations 4
ExecutionTime = 2.4 s  ClockTime = 2 s

Courant Number mean: 0.00131688 max: 5.15892
deltaT = 1.76047e-08
Time = 0.00126287

PIMPLE: iteration 1
smoothSolver:  Solving for alpha.water, Initial residual = 0.000524766, Final residual = 1.65647e-09, No Iterations 4
Phase-1 volume fraction = -0.0687886  Min(alpha.water) = -12.1775  Max(alpha.water) = 1
MULES: Correcting alpha.water
MULES: Correcting alpha.water
Liquid phase volume fraction = -0.0687887  Min(alpha.water) = -12.1775  Max(alpha.water) = 1
GAMG:  Solving for p_rgh, Initial residual = 0.000232329, Final residual = 2.55754e-06, No Iterations 1
GAMG:  Solving for p_rgh, Initial residual = 8.87579e-05, Final residual = 1.51274e-06, No Iterations 1
GAMGPCG:  Solving for p_rgh, Initial residual = 5.4008e-05, Final residual = 2.09294e-08, No Iterations 4
ExecutionTime = 2.45 s  ClockTime = 2 s

Courant Number mean: 0.00128659 max: 5.15909
deltaT = 1.70618e-08
Time = 0.00126289

PIMPLE: iteration 1
smoothSolver:  Solving for alpha.water, Initial residual = 0.000506514, Final residual = 1.47917e-09, No Iterations 4
Phase-1 volume fraction = -0.068898  Min(alpha.water) = -12.1953  Max(alpha.water) = 1
MULES: Correcting alpha.water
MULES: Correcting alpha.water
Liquid phase volume fraction = -0.0688981  Min(alpha.water) = -12.1953  Max(alpha.water) = 1
GAMG:  Solving for p_rgh, Initial residual = 0.000187093, Final residual = 1.42421e-06, No Iterations 1
GAMG:  Solving for p_rgh, Initial residual = 7.09413e-05, Final residual = 8.50952e-07, No Iterations 1
GAMGPCG:  Solving for p_rgh, Initial residual = 4.37829e-05, Final residual = 8.74794e-08, No Iterations 3
ExecutionTime = 2.5 s  ClockTime = 2 s

Courant Number mean: 0.00125707 max: 5.15927
deltaT = 1.65351e-08
Time = 0.0012629

PIMPLE: iteration 1
smoothSolver:  Solving for alpha.water, Initial residual = 0.000489094, Final residual = 1.45743e-09, No Iterations 4
Phase-1 volume fraction = -0.0690038  Min(alpha.water) = -12.2127  Max(alpha.water) = 1
MULES: Correcting alpha.water
MULES: Correcting alpha.water
Liquid phase volume fraction = -0.069004  Min(alpha.water) = -12.2127  Max(alpha.water) = 1
GAMG:  Solving for p_rgh, Initial residual = 0.000150481, Final residual = 1.49833e-06, No Iterations 1
GAMG:  Solving for p_rgh, Initial residual = 6.08063e-05, Final residual = 1.12064e-06, No Iterations 1
GAMGPCG:  Solving for p_rgh, Initial residual = 3.60164e-05, Final residual = 7.72378e-08, No Iterations 3
ExecutionTime = 2.55 s  ClockTime = 2 s

Courant Number mean: 0.00122825 max: 5.15943
deltaT = 1.60241e-08
Time = 0.00126292

PIMPLE: iteration 1
smoothSolver:  Solving for alpha.water, Initial residual = 0.000471896, Final residual = 1.45313e-09, No Iterations 4
Phase-1 volume fraction = -0.0691062  Min(alpha.water) = -12.2295  Max(alpha.water) = 1
MULES: Correcting alpha.water
MULES: Correcting alpha.water
Liquid phase volume fraction = -0.0691063  Min(alpha.water) = -12.2295  Max(alpha.water) = 1
GAMG:  Solving for p_rgh, Initial residual = 0.000123325, Final residual = 1.4354e-06, No Iterations 1
GAMG:  Solving for p_rgh, Initial residual = 5.0593e-05, Final residual = 9.97171e-07, No Iterations 1
GAMGPCG:  Solving for p_rgh, Initial residual = 3.01965e-05, Final residual = 6.04324e-08, No Iterations 3
ExecutionTime = 2.58 s  ClockTime = 3 s

Courant Number mean: 0.00120024 max: 5.15959
deltaT = 1.55285e-08
Time = 0.00126294

PIMPLE: iteration 1
smoothSolver:  Solving for alpha.water, Initial residual = 0.000456063, Final residual = 1.35995e-09, No Iterations 4
Phase-1 volume fraction = -0.0692053  Min(alpha.water) = -12.2457  Max(alpha.water) = 1
MULES: Correcting alpha.water
MULES: Correcting alpha.water
Liquid phase volume fraction = -0.0692054  Min(alpha.water) = -12.2457  Max(alpha.water) = 1
GAMG:  Solving for p_rgh, Initial residual = 0.000102591, Final residual = 1.08549e-06, No Iterations 1
GAMG:  Solving for p_rgh, Initial residual = 4.46637e-05, Final residual = 8.71537e-07, No Iterations 1
GAMGPCG:  Solving for p_rgh, Initial residual = 2.65585e-05, Final residual = 7.94347e-08, No Iterations 3
ExecutionTime = 2.62 s  ClockTime = 3 s

Courant Number mean: 0.00117299 max: 5.15973
deltaT = 1.50478e-08
Time = 0.00126295

PIMPLE: iteration 1
smoothSolver:  Solving for alpha.water, Initial residual = 0.000440235, Final residual = 1.25886e-09, No Iterations 4
Phase-1 volume fraction = -0.0693011  Min(alpha.water) = -12.2615  Max(alpha.water) = 1
MULES: Correcting alpha.water
MULES: Correcting alpha.water
Liquid phase volume fraction = -0.0693013  Min(alpha.water) = -12.2615  Max(alpha.water) = 1
GAMG:  Solving for p_rgh, Initial residual = 8.97492e-05, Final residual = 1.19363e-06, No Iterations 1
GAMG:  Solving for p_rgh, Initial residual = 3.96802e-05, Final residual = 7.03424e-07, No Iterations 1
GAMGPCG:  Solving for p_rgh, Initial residual = 2.29406e-05, Final residual = 8.55044e-08, No Iterations 3
ExecutionTime = 2.68 s  ClockTime = 3 s

Courant Number mean: 0.00114648 max: 5.15986
deltaT = 1.45816e-08
Time = 0.00126296

PIMPLE: iteration 1
smoothSolver:  Solving for alpha.water, Initial residual = 0.000425409, Final residual = 1.19995e-09, No Iterations 4
Phase-1 volume fraction = -0.0693939  Min(alpha.water) = -12.2768  Max(alpha.water) = 1
MULES: Correcting alpha.water
MULES: Correcting alpha.water
Liquid phase volume fraction = -0.069394  Min(alpha.water) = -12.2768  Max(alpha.water) = 1
GAMG:  Solving for p_rgh, Initial residual = 7.56717e-05, Final residual = 9.63271e-07, No Iterations 1
GAMG:  Solving for p_rgh, Initial residual = 3.34662e-05, Final residual = 6.51152e-07, No Iterations 1
GAMGPCG:  Solving for p_rgh, Initial residual = 1.95639e-05, Final residual = 9.16358e-08, No Iterations 3
ExecutionTime = 2.7 s  ClockTime = 3 s

Courant Number mean: 0.00112073 max: 5.15999
deltaT = 1.41294e-08
Time = 0.00126298

PIMPLE: iteration 1
smoothSolver:  Solving for alpha.water, Initial residual = 0.000410368, Final residual = 9.55366e-09, No Iterations 3
Phase-1 volume fraction = -0.0694837  Min(alpha.water) = -12.2917  Max(alpha.water) = 1
MULES: Correcting alpha.water
MULES: Correcting alpha.water
Liquid phase volume fraction = -0.0694838  Min(alpha.water) = -12.2917  Max(alpha.water) = 1
GAMG:  Solving for p_rgh, Initial residual = 6.3351e-05, Final residual = 1.36509e-06, No Iterations 1
GAMG:  Solving for p_rgh, Initial residual = 2.88557e-05, Final residual = 9.39926e-07, No Iterations 1
GAMGPCG:  Solving for p_rgh, Initial residual = 1.63065e-05, Final residual = 5.50879e-08, No Iterations 4
ExecutionTime = 2.75 s  ClockTime = 3 s

Courant Number mean: 0.00109562 max: 5.16011
deltaT = 1.3691e-08
Time = 0.00126299

PIMPLE: iteration 1
smoothSolver:  Solving for alpha.water, Initial residual = 0.000395725, Final residual = 8.50287e-09, No Iterations 3
Phase-1 volume fraction = -0.0695706  Min(alpha.water) = -12.306  Max(alpha.water) = 1
MULES: Correcting alpha.water
MULES: Correcting alpha.water
Liquid phase volume fraction = -0.0695707  Min(alpha.water) = -12.306  Max(alpha.water) = 1
GAMG:  Solving for p_rgh, Initial residual = 5.07498e-05, Final residual = 1.38216e-06, No Iterations 1
GAMG:  Solving for p_rgh, Initial residual = 2.25129e-05, Final residual = 9.7677e-07, No Iterations 1
GAMGPCG:  Solving for p_rgh, Initial residual = 1.29829e-05, Final residual = 9.16137e-08, No Iterations 3
ExecutionTime = 2.8 s  ClockTime = 3 s

Courant Number mean: 0.00107126 max: 5.1602
deltaT = 1.3266e-08
Time = 0.00126301

PIMPLE: iteration 1
smoothSolver:  Solving for alpha.water, Initial residual = 0.00038159, Final residual = 7.80228e-09, No Iterations 3
Phase-1 volume fraction = -0.0696547  Min(alpha.water) = -12.32  Max(alpha.water) = 1
MULES: Correcting alpha.water
MULES: Correcting alpha.water
Liquid phase volume fraction = -0.0696548  Min(alpha.water) = -12.32  Max(alpha.water) = 1
GAMG:  Solving for p_rgh, Initial residual = 3.82884e-05, Final residual = 1.1685e-06, No Iterations 1
GAMG:  Solving for p_rgh, Initial residual = 1.8583e-05, Final residual = 8.52478e-07, No Iterations 1
GAMGPCG:  Solving for p_rgh, Initial residual = 1.07123e-05, Final residual = 8.27906e-08, No Iterations 3
ExecutionTime = 2.85 s  ClockTime = 3 s

Courant Number mean: 0.00104759 max: 5.16032
deltaT = 1.28538e-08
Time = 0.00126302

PIMPLE: iteration 1
smoothSolver:  Solving for alpha.water, Initial residual = 0.000368248, Final residual = 7.11935e-09, No Iterations 3
Phase-1 volume fraction = -0.0697359  Min(alpha.water) = -12.3335  Max(alpha.water) = 1
MULES: Correcting alpha.water
MULES: Correcting alpha.water
Liquid phase volume fraction = -0.069736  Min(alpha.water) = -12.3335  Max(alpha.water) = 1
GAMG:  Solving for p_rgh, Initial residual = 3.02589e-05, Final residual = 8.11145e-07, No Iterations 1
GAMG:  Solving for p_rgh, Initial residual = 1.57256e-05, Final residual = 5.45484e-07, No Iterations 1
GAMGPCG:  Solving for p_rgh, Initial residual = 9.07724e-06, Final residual = 8.48821e-08, No Iterations 4
ExecutionTime = 2.88 s  ClockTime = 3 s

Courant Number mean: 0.00102479 max: 5.16044
deltaT = 1.24542e-08
Time = 0.00126303

PIMPLE: iteration 1
smoothSolver:  Solving for alpha.water, Initial residual = 0.000355867, Final residual = 6.7043e-09, No Iterations 3
Phase-1 volume fraction = -0.0698144  Min(alpha.water) = -12.3466  Max(alpha.water) = 1
MULES: Correcting alpha.water
MULES: Correcting alpha.water
Liquid phase volume fraction = -0.0698145  Min(alpha.water) = -12.3466  Max(alpha.water) = 1
GAMG:  Solving for p_rgh, Initial residual = 2.63875e-05, Final residual = 6.32288e-07, No Iterations 1
GAMG:  Solving for p_rgh, Initial residual = 1.36958e-05, Final residual = 4.35635e-07, No Iterations 1
GAMGPCG:  Solving for p_rgh, Initial residual = 8.02981e-06, Final residual = 5.88811e-08, No Iterations 4
ExecutionTime = 2.92 s  ClockTime = 3 s

Courant Number mean: 0.00100276 max: 5.16054
deltaT = 1.20667e-08
Time = 0.00126304

PIMPLE: iteration 1
smoothSolver:  Solving for alpha.water, Initial residual = 0.000343788, Final residual = 6.50648e-09, No Iterations 3
Phase-1 volume fraction = -0.0698903  Min(alpha.water) = -12.3593  Max(alpha.water) = 1
MULES: Correcting alpha.water
MULES: Correcting alpha.water
Liquid phase volume fraction = -0.0698904  Min(alpha.water) = -12.3593  Max(alpha.water) = 1
GAMG:  Solving for p_rgh, Initial residual = 2.48543e-05, Final residual = 5.93082e-07, No Iterations 1
GAMG:  Solving for p_rgh, Initial residual = 1.28289e-05, Final residual = 4.31034e-07, No Iterations 1
GAMGPCG:  Solving for p_rgh, Initial residual = 7.54791e-06, Final residual = 2.08024e-08, No Iterations 4
ExecutionTime = 2.96 s  ClockTime = 3 s

Courant Number mean: 0.000981423 max: 5.16065
deltaT = 1.16911e-08
Time = 0.00126305

PIMPLE: iteration 1
smoothSolver:  Solving for alpha.water, Initial residual = 0.000331784, Final residual = 6.18995e-09, No Iterations 3
Phase-1 volume fraction = -0.0699636  Min(alpha.water) = -12.3716  Max(alpha.water) = 1
MULES: Correcting alpha.water
MULES: Correcting alpha.water
Liquid phase volume fraction = -0.0699637  Min(alpha.water) = -12.3716  Max(alpha.water) = 1
GAMG:  Solving for p_rgh, Initial residual = 2.33856e-05, Final residual = 5.63062e-07, No Iterations 1
GAMG:  Solving for p_rgh, Initial residual = 1.16295e-05, Final residual = 3.79061e-07, No Iterations 1
GAMGPCG:  Solving for p_rgh, Initial residual = 6.71872e-06, Final residual = 5.72578e-08, No Iterations 4
ExecutionTime = 3 s  ClockTime = 3 s

Courant Number mean: 0.000960748 max: 5.16076
deltaT = 1.13269e-08
Time = 0.00126307

PIMPLE: iteration 1
smoothSolver:  Solving for alpha.water, Initial residual = 0.000320609, Final residual = 6.02006e-09, No Iterations 3
Phase-1 volume fraction = -0.0700345  Min(alpha.water) = -12.3835  Max(alpha.water) = 1
MULES: Correcting alpha.water
MULES: Correcting alpha.water
Liquid phase volume fraction = -0.0700346  Min(alpha.water) = -12.3835  Max(alpha.water) = 1
GAMG:  Solving for p_rgh, Initial residual = 2.07087e-05, Final residual = 3.80327e-07, No Iterations 1
GAMG:  Solving for p_rgh, Initial residual = 1.05148e-05, Final residual = 3.19967e-07, No Iterations 1
GAMGPCG:  Solving for p_rgh, Initial residual = 6.18009e-06, Final residual = 7.05545e-08, No Iterations 3
ExecutionTime = 3.04 s  ClockTime = 3 s

Courant Number mean: 0.000940653 max: 5.16085
deltaT = 1.09739e-08
Time = 0.00126308

PIMPLE: iteration 1
smoothSolver:  Solving for alpha.water, Initial residual = 0.000309319, Final residual = 6.76174e-09, No Iterations 3
Phase-1 volume fraction = -0.0701031  Min(alpha.water) = -12.395  Max(alpha.water) = 1
MULES: Correcting alpha.water
MULES: Correcting alpha.water
Liquid phase volume fraction = -0.0701032  Min(alpha.water) = -12.395  Max(alpha.water) = 1
GAMG:  Solving for p_rgh, Initial residual = 1.84675e-05, Final residual = 4.74945e-07, No Iterations 1
GAMG:  Solving for p_rgh, Initial residual = 9.78096e-06, Final residual = 3.31413e-07, No Iterations 1
GAMGPCG:  Solving for p_rgh, Initial residual = 5.76733e-06, Final residual = 6.93643e-08, No Iterations 3
ExecutionTime = 3.08 s  ClockTime = 3 s

Courant Number mean: 0.000921106 max: 5.16104
deltaT = 1.06315e-08
Time = 0.00126309

PIMPLE: iteration 1
smoothSolver:  Solving for alpha.water, Initial residual = 0.000298893, Final residual = 7.07649e-09, No Iterations 3
Phase-1 volume fraction = -0.0701693  Min(alpha.water) = -12.4062  Max(alpha.water) = 1
MULES: Correcting alpha.water
MULES: Correcting alpha.water
Liquid phase volume fraction = -0.0701694  Min(alpha.water) = -12.4062  Max(alpha.water) = 1
GAMG:  Solving for p_rgh, Initial residual = 1.68757e-05, Final residual = 4.90394e-07, No Iterations 1
GAMG:  Solving for p_rgh, Initial residual = 8.86654e-06, Final residual = 3.32389e-07, No Iterations 1
GAMGPCG:  Solving for p_rgh, Initial residual = 5.14474e-06, Final residual = 5.65275e-08, No Iterations 3
ExecutionTime = 3.13 s  ClockTime = 3 s

Courant Number mean: 0.000902215 max: 5.16121
deltaT = 1.02994e-08
Time = 0.0012631

PIMPLE: iteration 1
smoothSolver:  Solving for alpha.water, Initial residual = 0.000288879, Final residual = 8.01633e-09, No Iterations 3
Phase-1 volume fraction = -0.0702333  Min(alpha.water) = -12.4171  Max(alpha.water) = 1
MULES: Correcting alpha.water
MULES: Correcting alpha.water
Liquid phase volume fraction = -0.0702335  Min(alpha.water) = -12.4171  Max(alpha.water) = 1
GAMG:  Solving for p_rgh, Initial residual = 1.47325e-05, Final residual = 3.69589e-07, No Iterations 1
GAMG:  Solving for p_rgh, Initial residual = 7.7947e-06, Final residual = 2.31924e-07, No Iterations 1
GAMGPCG:  Solving for p_rgh, Initial residual = 4.65484e-06, Final residual = 9.99521e-08, No Iterations 2
ExecutionTime = 3.16 s  ClockTime = 3 s

Courant Number mean: 0.000883946 max: 5.16131
deltaT = 9.97748e-09
Time = 0.00126311

PIMPLE: iteration 1
smoothSolver:  Solving for alpha.water, Initial residual = 0.000278162, Final residual = 8.071e-09, No Iterations 3
Phase-1 volume fraction = -0.0702952  Min(alpha.water) = -12.4276  Max(alpha.water) = 1
MULES: Correcting alpha.water
MULES: Correcting alpha.water
Liquid phase volume fraction = -0.0702953  Min(alpha.water) = -12.4276  Max(alpha.water) = 1
GAMG:  Solving for p_rgh, Initial residual = 1.28594e-05, Final residual = 2.73409e-07, No Iterations 1
GAMG:  Solving for p_rgh, Initial residual = 7.00486e-06, Final residual = 2.01348e-07, No Iterations 1
GAMGPCG:  Solving for p_rgh, Initial residual = 4.20891e-06, Final residual = 1.94382e-08, No Iterations 4
ExecutionTime = 3.2 s  ClockTime = 3 s

Courant Number mean: 0.000866147 max: 5.16135
deltaT = 9.66558e-09
Time = 0.00126312

PIMPLE: iteration 1
smoothSolver:  Solving for alpha.water, Initial residual = 0.000267827, Final residual = 7.64517e-09, No Iterations 3
Phase-1 volume fraction = -0.0703549  Min(alpha.water) = -12.4378  Max(alpha.water) = 1
MULES: Correcting alpha.water
MULES: Correcting alpha.water
Liquid phase volume fraction = -0.070355  Min(alpha.water) = -12.4378  Max(alpha.water) = 1
GAMG:  Solving for p_rgh, Initial residual = 1.21885e-05, Final residual = 2.50433e-07, No Iterations 1
GAMG:  Solving for p_rgh, Initial residual = 6.49927e-06, Final residual = 1.49543e-07, No Iterations 1
GAMGPCG:  Solving for p_rgh, Initial residual = 3.75652e-06, Final residual = 3.64701e-08, No Iterations 3
ExecutionTime = 3.24 s  ClockTime = 3 s

Courant Number mean: 0.000848862 max: 5.16148
deltaT = 9.36319e-09
Time = 0.00126313

PIMPLE: iteration 1
smoothSolver:  Solving for alpha.water, Initial residual = 0.000258683, Final residual = 7.94161e-09, No Iterations 3
Phase-1 volume fraction = -0.0704126  Min(alpha.water) = -12.4476  Max(alpha.water) = 1
MULES: Correcting alpha.water
MULES: Correcting alpha.water
Liquid phase volume fraction = -0.0704127  Min(alpha.water) = -12.4476  Max(alpha.water) = 1
GAMG:  Solving for p_rgh, Initial residual = 1.08513e-05, Final residual = 1.90673e-07, No Iterations 1
GAMG:  Solving for p_rgh, Initial residual = 5.77459e-06, Final residual = 1.34839e-07, No Iterations 1
GAMGPCG:  Solving for p_rgh, Initial residual = 3.43337e-06, Final residual = 6.90737e-08, No Iterations 2
ExecutionTime = 3.29 s  ClockTime = 3 s

Courant Number mean: 0.000832077 max: 5.16153
deltaT = 9.07017e-09
Time = 0.00126314

PIMPLE: iteration 1
smoothSolver:  Solving for alpha.water, Initial residual = 0.000249434, Final residual = 7.98461e-09, No Iterations 3
Phase-1 volume fraction = -0.0704683  Min(alpha.water) = -12.4572  Max(alpha.water) = 1
MULES: Correcting alpha.water
MULES: Correcting alpha.water
Liquid phase volume fraction = -0.0704685  Min(alpha.water) = -12.4572  Max(alpha.water) = 1
GAMG:  Solving for p_rgh, Initial residual = 1.00646e-05, Final residual = 1.73216e-07, No Iterations 1
GAMG:  Solving for p_rgh, Initial residual = 5.30752e-06, Final residual = 1.27382e-07, No Iterations 1
GAMGPCG:  Solving for p_rgh, Initial residual = 3.17974e-06, Final residual = 9.44912e-08, No Iterations 1
ExecutionTime = 3.32 s  ClockTime = 3 s

Courant Number mean: 0.000815713 max: 5.16148
deltaT = 8.7864e-09
Time = 0.00126314

PIMPLE: iteration 1
smoothSolver:  Solving for alpha.water, Initial residual = 0.000240509, Final residual = 7.38652e-09, No Iterations 3
Phase-1 volume fraction = -0.0705222  Min(alpha.water) = -12.4664  Max(alpha.water) = 1
MULES: Correcting alpha.water
MULES: Correcting alpha.water
Liquid phase volume fraction = -0.0705224  Min(alpha.water) = -12.4664  Max(alpha.water) = 1
GAMG:  Solving for p_rgh, Initial residual = 9.34916e-06, Final residual = 1.89182e-07, No Iterations 1
GAMG:  Solving for p_rgh, Initial residual = 5.16133e-06, Final residual = 1.41709e-07, No Iterations 1
GAMGPCG:  Solving for p_rgh, Initial residual = 3.01726e-06, Final residual = 6.88292e-08, No Iterations 2
ExecutionTime = 3.35 s  ClockTime = 3 s

Courant Number mean: 0.000799887 max: 5.16157
deltaT = 8.51136e-09
Time = 0.00126315

PIMPLE: iteration 1
smoothSolver:  Solving for alpha.water, Initial residual = 0.000231935, Final residual = 6.85932e-09, No Iterations 3
Phase-1 volume fraction = -0.0705742  Min(alpha.water) = -12.4754  Max(alpha.water) = 1
MULES: Correcting alpha.water
MULES: Correcting alpha.water
Liquid phase volume fraction = -0.0705744  Min(alpha.water) = -12.4754  Max(alpha.water) = 1
GAMG:  Solving for p_rgh, Initial residual = 8.78335e-06, Final residual = 1.52541e-07, No Iterations 1
GAMG:  Solving for p_rgh, Initial residual = 4.6119e-06, Final residual = 8.84288e-08, No Iterations 1
GAMGPCG:  Solving for p_rgh, Initial residual = 2.68518e-06, Final residual = 9.23603e-08, No Iterations 1
ExecutionTime = 3.39 s  ClockTime = 3 s

Courant Number mean: 0.000784557 max: 5.16158
deltaT = 8.24491e-09
Time = 0.00126316

PIMPLE: iteration 1
smoothSolver:  Solving for alpha.water, Initial residual = 0.000223866, Final residual = 6.93194e-09, No Iterations 3
Phase-1 volume fraction = -0.0706246  Min(alpha.water) = -12.4841  Max(alpha.water) = 1
MULES: Correcting alpha.water
MULES: Correcting alpha.water
Liquid phase volume fraction = -0.0706247  Min(alpha.water) = -12.4841  Max(alpha.water) = 1
GAMG:  Solving for p_rgh, Initial residual = 7.99182e-06, Final residual = 1.42221e-07, No Iterations 1
GAMG:  Solving for p_rgh, Initial residual = 4.24911e-06, Final residual = 1.03865e-07, No Iterations 1
GAMGPCG:  Solving for p_rgh, Initial residual = 2.56986e-06, Final residual = 7.33983e-08, No Iterations 2
ExecutionTime = 3.42 s  ClockTime = 3 s

Courant Number mean: 0.000769712 max: 5.16175
deltaT = 7.98655e-09
Time = 0.00126317

PIMPLE: iteration 1
smoothSolver:  Solving for alpha.water, Initial residual = 0.000215784, Final residual = 6.97581e-09, No Iterations 3
Phase-1 volume fraction = -0.0706732  Min(alpha.water) = -12.4925  Max(alpha.water) = 1
MULES: Correcting alpha.water
MULES: Correcting alpha.water
Liquid phase volume fraction = -0.0706734  Min(alpha.water) = -12.4925  Max(alpha.water) = 1
GAMG:  Solving for p_rgh, Initial residual = 7.42702e-06, Final residual = 1.37042e-07, No Iterations 1
GAMG:  Solving for p_rgh, Initial residual = 3.94348e-06, Final residual = 8.48379e-08, No Iterations 1
GAMGPCG:  Solving for p_rgh, Initial residual = 2.33075e-06, Final residual = 2.79204e-08, No Iterations 2
ExecutionTime = 3.46 s  ClockTime = 3 s

Courant Number mean: 0.000755316 max: 5.16174
deltaT = 7.7363e-09
Time = 0.00126318

PIMPLE: iteration 1
smoothSolver:  Solving for alpha.water, Initial residual = 0.000208094, Final residual = 6.9774e-09, No Iterations 3
Phase-1 volume fraction = -0.0707202  Min(alpha.water) = -12.5007  Max(alpha.water) = 1
MULES: Correcting alpha.water
MULES: Correcting alpha.water
Liquid phase volume fraction = -0.0707204  Min(alpha.water) = -12.5007  Max(alpha.water) = 1
GAMG:  Solving for p_rgh, Initial residual = 6.66885e-06, Final residual = 1.72756e-07, No Iterations 1
GAMG:  Solving for p_rgh, Initial residual = 3.62227e-06, Final residual = 1.16657e-07, No Iterations 1
GAMGPCG:  Solving for p_rgh, Initial residual = 2.04163e-06, Final residual = 9.05543e-08, No Iterations 2
ExecutionTime = 3.5 s  ClockTime = 3 s

Courant Number mean: 0.00074127 max: 5.16187
deltaT = 7.4937e-09
Time = 0.00126318

PIMPLE: iteration 1
smoothSolver:  Solving for alpha.water, Initial residual = 0.000200639, Final residual = 6.98351e-09, No Iterations 3
Phase-1 volume fraction = -0.0707656  Min(alpha.water) = -12.5086  Max(alpha.water) = 1
MULES: Correcting alpha.water
MULES: Correcting alpha.water
Liquid phase volume fraction = -0.0707658  Min(alpha.water) = -12.5086  Max(alpha.water) = 1
GAMG:  Solving for p_rgh, Initial residual = 5.70096e-06, Final residual = 1.95502e-07, No Iterations 1
GAMG:  Solving for p_rgh, Initial residual = 3.11204e-06, Final residual = 1.33869e-07, No Iterations 1
GAMGPCG:  Solving for p_rgh, Initial residual = 1.80422e-06, Final residual = 4.38298e-08, No Iterations 4
ExecutionTime = 3.55 s  ClockTime = 3 s

Courant Number mean: 0.000727668 max: 5.16185
deltaT = 7.25873e-09
Time = 0.00126319

PIMPLE: iteration 1
smoothSolver:  Solving for alpha.water, Initial residual = 0.000193437, Final residual = 6.78118e-09, No Iterations 3
Phase-1 volume fraction = -0.0708095  Min(alpha.water) = -12.5163  Max(alpha.water) = 1
MULES: Correcting alpha.water
MULES: Correcting alpha.water
Liquid phase volume fraction = -0.0708096  Min(alpha.water) = -12.5163  Max(alpha.water) = 1
GAMG:  Solving for p_rgh, Initial residual = 4.64466e-06, Final residual = 1.35429e-07, No Iterations 1
GAMG:  Solving for p_rgh, Initial residual = 2.5453e-06, Final residual = 9.71237e-08, No Iterations 1
GAMGPCG:  Solving for p_rgh, Initial residual = 1.46992e-06, Final residual = 9.45216e-08, No Iterations 3
ExecutionTime = 3.58 s  ClockTime = 4 s

Courant Number mean: 0.000714525 max: 5.16182
deltaT = 7.03117e-09
Time = 0.0012632

PIMPLE: iteration 1
smoothSolver:  Solving for alpha.water, Initial residual = 0.000186611, Final residual = 6.95385e-09, No Iterations 3
Phase-1 volume fraction = -0.0708517  Min(alpha.water) = -12.5237  Max(alpha.water) = 1
MULES: Correcting alpha.water
MULES: Correcting alpha.water
Liquid phase volume fraction = -0.0708519  Min(alpha.water) = -12.5237  Max(alpha.water) = 1
GAMG:  Solving for p_rgh, Initial residual = 3.83063e-06, Final residual = 1.29469e-07, No Iterations 1
GAMG:  Solving for p_rgh, Initial residual = 2.21465e-06, Final residual = 9.08914e-08, No Iterations 1
GAMGPCG:  Solving for p_rgh, Initial residual = 1.29872e-06, Final residual = 5.38144e-08, No Iterations 2
ExecutionTime = 3.62 s  ClockTime = 4 s

Courant Number mean: 0.000701774 max: 5.16216
deltaT = 6.8103e-09
Time = 0.00126321

PIMPLE: iteration 1
smoothSolver:  Solving for alpha.water, Initial residual = 0.000180331, Final residual = 6.93797e-09, No Iterations 3
Phase-1 volume fraction = -0.0708925  Min(alpha.water) = -12.5309  Max(alpha.water) = 1
MULES: Correcting alpha.water
MULES: Correcting alpha.water
Liquid phase volume fraction = -0.0708927  Min(alpha.water) = -12.5309  Max(alpha.water) = 1
GAMG:  Solving for p_rgh, Initial residual = 3.34594e-06, Final residual = 1.21799e-07, No Iterations 1
GAMG:  Solving for p_rgh, Initial residual = 2.0076e-06, Final residual = 8.89897e-08, No Iterations 1
GAMGPCG:  Solving for p_rgh, Initial residual = 1.1592e-06, Final residual = 7.71427e-08, No Iterations 2
ExecutionTime = 3.66 s  ClockTime = 4 s

Courant Number mean: 0.000689415 max: 5.16217
deltaT = 6.59635e-09
Time = 0.00126321

PIMPLE: iteration 1
smoothSolver:  Solving for alpha.water, Initial residual = 0.000174369, Final residual = 6.95462e-09, No Iterations 3
Phase-1 volume fraction = -0.0709318  Min(alpha.water) = -12.5379  Max(alpha.water) = 1
MULES: Correcting alpha.water
MULES: Correcting alpha.water
Liquid phase volume fraction = -0.070932  Min(alpha.water) = -12.5379  Max(alpha.water) = 1
GAMG:  Solving for p_rgh, Initial residual = 2.96666e-06, Final residual = 9.33879e-08, No Iterations 1
GAMG:  Solving for p_rgh, Initial residual = 1.801e-06, Final residual = 6.85322e-08, No Iterations 1
GAMGPCG:  Solving for p_rgh, Initial residual = 1.03052e-06, Final residual = 8.68404e-08, No Iterations 2
ExecutionTime = 3.69 s  ClockTime = 4 s

Courant Number mean: 0.000677494 max: 5.16226
deltaT = 6.38902e-09
Time = 0.00126322

PIMPLE: iteration 1
smoothSolver:  Solving for alpha.water, Initial residual = 0.000168644, Final residual = 6.87194e-09, No Iterations 3
Phase-1 volume fraction = -0.0709696  Min(alpha.water) = -12.5446  Max(alpha.water) = 1
MULES: Correcting alpha.water
MULES: Correcting alpha.water
Liquid phase volume fraction = -0.0709698  Min(alpha.water) = -12.5446  Max(alpha.water) = 1
GAMG:  Solving for p_rgh, Initial residual = 2.72072e-06, Final residual = 1.05689e-07, No Iterations 1
GAMG:  Solving for p_rgh, Initial residual = 1.72362e-06, Final residual = 7.76922e-08, No Iterations 1
GAMGPCG:  Solving for p_rgh, Initial residual = 1.00287e-06, Final residual = 6.5866e-08, No Iterations 2
ExecutionTime = 3.73 s  ClockTime = 4 s

Courant Number mean: 0.000665965 max: 5.16224
deltaT = 6.18822e-09
Time = 0.00126323

PIMPLE: iteration 1
smoothSolver:  Solving for alpha.water, Initial residual = 0.00016314, Final residual = 6.74288e-09, No Iterations 3
Phase-1 volume fraction = -0.0710061  Min(alpha.water) = -12.5512  Max(alpha.water) = 1
MULES: Correcting alpha.water
MULES: Correcting alpha.water
Liquid phase volume fraction = -0.0710063  Min(alpha.water) = -12.5512  Max(alpha.water) = 1
GAMG:  Solving for p_rgh, Initial residual = 2.56075e-06, Final residual = 8.91335e-08, No Iterations 1
GAMG:  Solving for p_rgh, Initial residual = 1.60032e-06, Final residual = 6.64314e-08, No Iterations 1
GAMGPCG:  Solving for p_rgh, Initial residual = 9.56931e-07, Final residual = 6.49781e-08, No Iterations 2
ExecutionTime = 3.78 s  ClockTime = 4 s

Courant Number mean: 0.000654793 max: 5.16236
deltaT = 5.9936e-09
Time = 0.00126323

PIMPLE: iteration 1
smoothSolver:  Solving for alpha.water, Initial residual = 0.000157707, Final residual = 6.57011e-09, No Iterations 3
Phase-1 volume fraction = -0.0710413  Min(alpha.water) = -12.5575  Max(alpha.water) = 1
MULES: Correcting alpha.water
MULES: Correcting alpha.water
Liquid phase volume fraction = -0.0710415  Min(alpha.water) = -12.5575  Max(alpha.water) = 1
GAMG:  Solving for p_rgh, Initial residual = 2.41544e-06, Final residual = 7.92397e-08, No Iterations 1
GAMG:  Solving for p_rgh, Initial residual = 1.48491e-06, Final residual = 5.72642e-08, No Iterations 1
GAMGPCG:  Solving for p_rgh, Initial residual = 9.1003e-07, Final residual = 5.27479e-08, No Iterations 2
ExecutionTime = 3.81 s  ClockTime = 4 s

Courant Number mean: 0.000643897 max: 5.16241
deltaT = 5.80503e-09
Time = 0.00126324

PIMPLE: iteration 1
smoothSolver:  Solving for alpha.water, Initial residual = 0.000152263, Final residual = 6.63983e-09, No Iterations 3
Phase-1 volume fraction = -0.0710752  Min(alpha.water) = -12.5636  Max(alpha.water) = 1
MULES: Correcting alpha.water
MULES: Correcting alpha.water
Liquid phase volume fraction = -0.0710754  Min(alpha.water) = -12.5636  Max(alpha.water) = 1
GAMG:  Solving for p_rgh, Initial residual = 2.25112e-06, Final residual = 8.46809e-08, No Iterations 1
GAMG:  Solving for p_rgh, Initial residual = 1.40806e-06, Final residual = 6.11767e-08, No Iterations 1
GAMGPCG:  Solving for p_rgh, Initial residual = 8.71324e-07, Final residual = 4.3886e-08, No Iterations 2
ExecutionTime = 3.86 s  ClockTime = 4 s

Courant Number mean: 0.000633342 max: 5.16245
deltaT = 5.62237e-09
Time = 0.00126324

PIMPLE: iteration 1
smoothSolver:  Solving for alpha.water, Initial residual = 0.000147227, Final residual = 6.42305e-09, No Iterations 3
Phase-1 volume fraction = -0.0711078  Min(alpha.water) = -12.5696  Max(alpha.water) = 1
MULES: Correcting alpha.water
MULES: Correcting alpha.water
Liquid phase volume fraction = -0.071108  Min(alpha.water) = -12.5696  Max(alpha.water) = 1
GAMG:  Solving for p_rgh, Initial residual = 2.22813e-06, Final residual = 6.97967e-08, No Iterations 1
GAMG:  Solving for p_rgh, Initial residual = 1.30455e-06, Final residual = 4.95408e-08, No Iterations 1
GAMGPCG:  Solving for p_rgh, Initial residual = 7.82112e-07, Final residual = 3.39243e-08, No Iterations 2
ExecutionTime = 3.89 s  ClockTime = 4 s

Courant Number mean: 0.000623139 max: 5.16253
deltaT = 5.44537e-09
Time = 0.00126325

PIMPLE: iteration 1
smoothSolver:  Solving for alpha.water, Initial residual = 0.000142622, Final residual = 6.34471e-09, No Iterations 3
Phase-1 volume fraction = -0.0711392  Min(alpha.water) = -12.5753  Max(alpha.water) = 1
MULES: Correcting alpha.water
MULES: Correcting alpha.water
Liquid phase volume fraction = -0.0711394  Min(alpha.water) = -12.5753  Max(alpha.water) = 1
GAMG:  Solving for p_rgh, Initial residual = 2.06586e-06, Final residual = 5.16699e-08, No Iterations 1
GAMG:  Solving for p_rgh, Initial residual = 1.22802e-06, Final residual = 4.01702e-08, No Iterations 1
GAMGPCG:  Solving for p_rgh, Initial residual = 7.69801e-07, Final residual = 9.11664e-08, No Iterations 1
ExecutionTime = 3.94 s  ClockTime = 4 s

Courant Number mean: 0.000613239 max: 5.16247
deltaT = 5.27399e-09
Time = 0.00126325

PIMPLE: iteration 1
smoothSolver:  Solving for alpha.water, Initial residual = 0.000138189, Final residual = 6.20152e-09, No Iterations 3
Phase-1 volume fraction = -0.0711695  Min(alpha.water) = -12.5809  Max(alpha.water) = 1
MULES: Correcting alpha.water
MULES: Correcting alpha.water
Liquid phase volume fraction = -0.0711697  Min(alpha.water) = -12.5809  Max(alpha.water) = 1
GAMG:  Solving for p_rgh, Initial residual = 1.87614e-06, Final residual = 6.47615e-08, No Iterations 1
GAMG:  Solving for p_rgh, Initial residual = 1.1728e-06, Final residual = 6.55964e-08, No Iterations 1
GAMGPCG:  Solving for p_rgh, Initial residual = 7.41171e-07, Final residual = 7.39387e-08, No Iterations 2
ExecutionTime = 3.97 s  ClockTime = 4 s

Courant Number mean: 0.000603614 max: 5.16292
deltaT = 5.10756e-09
Time = 0.00126326

PIMPLE: iteration 1
smoothSolver:  Solving for alpha.water, Initial residual = 0.000133577, Final residual = 6.07261e-09, No Iterations 3
Phase-1 volume fraction = -0.0711987  Min(alpha.water) = -12.5863  Max(alpha.water) = 1
MULES: Correcting alpha.water
MULES: Correcting alpha.water
Liquid phase volume fraction = -0.0711989  Min(alpha.water) = -12.5863  Max(alpha.water) = 1
GAMG:  Solving for p_rgh, Initial residual = 1.88512e-06, Final residual = 6.11019e-08, No Iterations 1
GAMG:  Solving for p_rgh, Initial residual = 1.16204e-06, Final residual = 4.44837e-08, No Iterations 1
GAMGPCG:  Solving for p_rgh, Initial residual = 7.14255e-07, Final residual = 9.17102e-08, No Iterations 1
ExecutionTime = 4.02 s  ClockTime = 4 s

Courant Number mean: 0.000594198 max: 5.16243
deltaT = 4.94686e-09
Time = 0.00126326

PIMPLE: iteration 1
smoothSolver:  Solving for alpha.water, Initial residual = 0.000129428, Final residual = 6.15781e-09, No Iterations 3
Phase-1 volume fraction = -0.0712269  Min(alpha.water) = -12.5915  Max(alpha.water) = 1
MULES: Correcting alpha.water
MULES: Correcting alpha.water
Liquid phase volume fraction = -0.0712271  Min(alpha.water) = -12.5915  Max(alpha.water) = 1
GAMG:  Solving for p_rgh, Initial residual = 1.68914e-06, Final residual = 6.30333e-08, No Iterations 1
GAMG:  Solving for p_rgh, Initial residual = 1.08736e-06, Final residual = 5.40373e-08, No Iterations 1
GAMGPCG:  Solving for p_rgh, Initial residual = 6.8651e-07, Final residual = 6.09561e-08, No Iterations 2
ExecutionTime = 4.05 s  ClockTime = 4 s

Courant Number mean: 0.000585137 max: 5.16299
deltaT = 4.7907e-09
Time = 0.00126327

PIMPLE: iteration 1
smoothSolver:  Solving for alpha.water, Initial residual = 0.000125249, Final residual = 5.97501e-09, No Iterations 3
Phase-1 volume fraction = -0.071254  Min(alpha.water) = -12.5966  Max(alpha.water) = 1
MULES: Correcting alpha.water
MULES: Correcting alpha.water
Liquid phase volume fraction = -0.0712542  Min(alpha.water) = -12.5966  Max(alpha.water) = 1
GAMG:  Solving for p_rgh, Initial residual = 1.73865e-06, Final residual = 5.9286e-08, No Iterations 1
GAMG:  Solving for p_rgh, Initial residual = 1.04169e-06, Final residual = 3.96797e-08, No Iterations 1
GAMGPCG:  Solving for p_rgh, Initial residual = 6.55917e-07, Final residual = 8.14166e-08, No Iterations 1
ExecutionTime = 4.11 s  ClockTime = 4 s

Courant Number mean: 0.000576298 max: 5.16254
deltaT = 4.63987e-09
Time = 0.00126327

PIMPLE: iteration 1
smoothSolver:  Solving for alpha.water, Initial residual = 0.000121515, Final residual = 6.11209e-09, No Iterations 3
Phase-1 volume fraction = -0.0712801  Min(alpha.water) = -12.6015  Max(alpha.water) = 1
MULES: Correcting alpha.water
MULES: Correcting alpha.water
Liquid phase volume fraction = -0.0712803  Min(alpha.water) = -12.6015  Max(alpha.water) = 1
GAMG:  Solving for p_rgh, Initial residual = 1.55576e-06, Final residual = 6.75046e-08, No Iterations 1
GAMG:  Solving for p_rgh, Initial residual = 1.01458e-06, Final residual = 5.84126e-08, No Iterations 1
GAMGPCG:  Solving for p_rgh, Initial residual = 6.27176e-07, Final residual = 5.73484e-08, No Iterations 2
ExecutionTime = 4.16 s  ClockTime = 4 s

Courant Number mean: 0.000567791 max: 5.16304
deltaT = 4.49335e-09
Time = 0.00126328

PIMPLE: iteration 1
smoothSolver:  Solving for alpha.water, Initial residual = 0.000117856, Final residual = 6.03481e-09, No Iterations 3
Phase-1 volume fraction = -0.0713053  Min(alpha.water) = -12.6063  Max(alpha.water) = 1
MULES: Correcting alpha.water
MULES: Correcting alpha.water
Liquid phase volume fraction = -0.0713055  Min(alpha.water) = -12.6063  Max(alpha.water) = 1
GAMG:  Solving for p_rgh, Initial residual = 1.59823e-06, Final residual = 4.16936e-08, No Iterations 1
GAMG:  Solving for p_rgh, Initial residual = 9.78126e-07, Final residual = 3.27457e-08, No Iterations 1
[...]
smoothSolver:  Solving for alpha.water, Initial residual = 1.42591e-06, Final residual = 1.06651e-09, No Iterations 1
Phase-1 volume fraction = -5.26083e+10  Min(alpha.water) = -1.93693e+14  Max(alpha.water) = 3.72199e+12
MULES: Correcting alpha.water
MULES: Correcting alpha.water
Liquid phase volume fraction = -5.26083e+10  Min(alpha.water) = -1.93693e+14  Max(alpha.water) = 3.72199e+12
GAMG:  Solving for p_rgh, Initial residual = 1.03642e-62, Final residual = 1.03642e-62, No Iterations 0
GAMG:  Solving for p_rgh, Initial residual = 9.83841e-63, Final residual = 9.83841e-63, No Iterations 0
GAMGPCG:  Solving for p_rgh, Initial residual = 9.43509e-63, Final residual = 9.43509e-63, No Iterations 0
ExecutionTime = 145.33 s  ClockTime = 149 s

Courant Number mean: 0.0157582 max: 2.78258
deltaT = 2.5613e-90
Time = 0.00126341

PIMPLE: iteration 1
smoothSolver:  Solving for alpha.water, Initial residual = 1.6952e-06, Final residual = 1.58249e-09, No Iterations 1
Phase-1 volume fraction = -5.26084e+10  Min(alpha.water) = -1.93693e+14  Max(alpha.water) = 3.72199e+12
MULES: Correcting alpha.water
MULES: Correcting alpha.water
Liquid phase volume fraction = -5.26084e+10  Min(alpha.water) = -1.93693e+14  Max(alpha.water) = 3.72199e+12
GAMG:  Solving for p_rgh, Initial residual = 1.667e-62, Final residual = 1.667e-62, No Iterations 0
GAMG:  Solving for p_rgh, Initial residual = 1.9177e-62, Final residual = 1.9177e-62, No Iterations 0
GAMGPCG:  Solving for p_rgh, Initial residual = 1.90302e-62, Final residual = 1.90302e-62, No Iterations 0
ExecutionTime = 145.36 s  ClockTime = 149 s

Courant Number mean: 0.0323808 max: 26.8215
deltaT = 4.7747e-91
Time = 0.00126341

PIMPLE: iteration 1
smoothSolver:  Solving for alpha.water, Initial residual = 3.47985e-07, Final residual = 1.47608e-10, No Iterations 1
Phase-1 volume fraction = -5.26084e+10  Min(alpha.water) = -1.93693e+14  Max(alpha.water) = 3.72199e+12
MULES: Correcting alpha.water
MULES: Correcting alpha.water
Liquid phase volume fraction = -5.26084e+10  Min(alpha.water) = -1.93693e+14  Max(alpha.water) = 3.72199e+12
GAMG:  Solving for p_rgh, Initial residual = 9.75402e-62, Final residual = 9.75402e-62, No Iterations 0
GAMG:  Solving for p_rgh, Initial residual = 1.10881e-61, Final residual = 1.10881e-61, No Iterations 0
GAMGPCG:  Solving for p_rgh, Initial residual = 1.17205e-61, Final residual = 1.17205e-61, No Iterations 0
ExecutionTime = 145.39 s  ClockTime = 149 s

Courant Number mean: 0.036451 max: 24.2034
deltaT = 9.86372e-92
Time = 0.00126341

PIMPLE: iteration 1
smoothSolver:  Solving for alpha.water, Initial residual = 1.31906e-07, Final residual = 2.07308e-09, No Iterations 1
Phase-1 volume fraction = -5.26084e+10  Min(alpha.water) = -1.93693e+14  Max(alpha.water) = 3.72199e+12
MULES: Correcting alpha.water
MULES: Correcting alpha.water
Liquid phase volume fraction = -5.26084e+10  Min(alpha.water) = -1.93693e+14  Max(alpha.water) = 3.72199e+12
GAMG:  Solving for p_rgh, Initial residual = 6.55335e-61, Final residual = 6.55335e-61, No Iterations 0
GAMG:  Solving for p_rgh, Initial residual = 8.70912e-61, Final residual = 8.70912e-61, No Iterations 0
GAMGPCG:  Solving for p_rgh, Initial residual = 1.04743e-60, Final residual = 1.04743e-60, No Iterations 0
ExecutionTime = 145.42 s  ClockTime = 149 s

Courant Number mean: 0.0732813 max: 43.0717
deltaT = 1.14503e-92
Time = 0.00126341

PIMPLE: iteration 1
smoothSolver:  Solving for alpha.water, Initial residual = 5.95192e-07, Final residual = 5.30299e-09, No Iterations 1
Phase-1 volume fraction = -5.26084e+10  Min(alpha.water) = -1.93693e+14  Max(alpha.water) = 3.72199e+12
MULES: Correcting alpha.water
MULES: Correcting alpha.water
Liquid phase volume fraction = -5.26084e+10  Min(alpha.water) = -1.93693e+14  Max(alpha.water) = 3.72199e+12
GAMG:  Solving for p_rgh, Initial residual = 4.26452e-60, Final residual = 4.26452e-60, No Iterations 0
GAMG:  Solving for p_rgh, Initial residual = 5.97053e-60, Final residual = 5.97053e-60, No Iterations 0
GAMGPCG:  Solving for p_rgh, Initial residual = 7.08099e-60, Final residual = 7.08099e-60, No Iterations 0
ExecutionTime = 145.45 s  ClockTime = 149 s

Courant Number mean: 0.053097 max: 16.0102
deltaT = 3.57595e-93
Time = 0.00126341

PIMPLE: iteration 1
smoothSolver:  Solving for alpha.water, Initial residual = 1.11427e-05, Final residual = 1.36075e-09, No Iterations 2
Phase-1 volume fraction = -5.26087e+10  Min(alpha.water) = -1.93693e+14  Max(alpha.water) = 3.72199e+12
MULES: Correcting alpha.water
MULES: Correcting alpha.water
Liquid phase volume fraction = -5.26087e+10  Min(alpha.water) = -1.93693e+14  Max(alpha.water) = 3.72199e+12
GAMG:  Solving for p_rgh, Initial residual = 2.24645e-58, Final residual = 2.24645e-58, No Iterations 0
GAMG:  Solving for p_rgh, Initial residual = 3.33472e-58, Final residual = 3.33472e-58, No Iterations 0
GAMGPCG:  Solving for p_rgh, Initial residual = 4.10378e-58, Final residual = 4.10378e-58, No Iterations 0
ExecutionTime = 145.5 s  ClockTime = 149 s

Courant Number mean: 0.976468 max: 614.809
deltaT = 2.90818e-95
Time = 0.00126341

PIMPLE: iteration 1
smoothSolver:  Solving for alpha.water, Initial residual = 9.45966e-05, Final residual = 6.43593e-09, No Iterations 1
Phase-1 volume fraction = -5.26221e+10  Min(alpha.water) = -1.93693e+14  Max(alpha.water) = 3.72199e+12
MULES: Correcting alpha.water
MULES: Correcting alpha.water
Liquid phase volume fraction = -5.26221e+10  Min(alpha.water) = -1.93693e+14  Max(alpha.water) = 3.72199e+12
GAMG:  Solving for p_rgh, Initial residual = 9.3095e-58, Final residual = 9.3095e-58, No Iterations 0
GAMG:  Solving for p_rgh, Initial residual = 8.80891e-58, Final residual = 8.80891e-58, No Iterations 0
GAMGPCG:  Solving for p_rgh, Initial residual = 8.34955e-58, Final residual = 8.34955e-58, No Iterations 0
ExecutionTime = 145.53 s  ClockTime = 149 s

Courant Number mean: 0.0159219 max: 5.10263
deltaT = 2.84969e-95
Time = 0.00126341

PIMPLE: iteration 1
smoothSolver:  Solving for alpha.water, Initial residual = 0.000331766, Final residual = 5.79591e-10, No Iterations 2
Phase-1 volume fraction = -5.2584e+10  Min(alpha.water) = -1.93692e+14  Max(alpha.water) = 3.70513e+12
MULES: Correcting alpha.water
MULES: Correcting alpha.water
Liquid phase volume fraction = -5.2584e+10  Min(alpha.water) = -1.93692e+14  Max(alpha.water) = 3.70513e+12
GAMG:  Solving for p_rgh, Initial residual = 9.67686e-57, Final residual = 9.67686e-57, No Iterations 0
GAMG:  Solving for p_rgh, Initial residual = 1.5584e-56, Final residual = 1.5584e-56, No Iterations 0
GAMGPCG:  Solving for p_rgh, Initial residual = 1.88792e-56, Final residual = 1.88792e-56, No Iterations 0
ExecutionTime = 145.56 s  ClockTime = 149 s

Courant Number mean: 0.378583 max: 245.025
deltaT = 5.8151e-97
Time = 0.00126341

PIMPLE: iteration 1
smoothSolver:  Solving for alpha.water, Initial residual = 0.0566457, Final residual = 3.72766e-14, No Iterations 3
Phase-1 volume fraction = -6.11344e+10  Min(alpha.water) = -1.93692e+14  Max(alpha.water) = 3.70468e+12
MULES: Correcting alpha.water
MULES: Correcting alpha.water
Liquid phase volume fraction = -6.11344e+10  Min(alpha.water) = -1.93692e+14  Max(alpha.water) = 3.70468e+12
GAMG:  Solving for p_rgh, Initial residual = 1.27556e-54, Final residual = 1.27556e-54, No Iterations 0
GAMG:  Solving for p_rgh, Initial residual = 1.77211e-54, Final residual = 1.77211e-54, No Iterations 0
GAMGPCG:  Solving for p_rgh, Initial residual = 2.45333e-54, Final residual = 2.45333e-54, No Iterations 0
ExecutionTime = 145.61 s  ClockTime = 149 s

Courant Number mean: 1.05235 max: 554.788
deltaT = 5.24082e-99
Time = 0.00126341

PIMPLE: iteration 1
smoothSolver:  Solving for alpha.water, Initial residual = 0.142985, Final residual = 2.412e-14, No Iterations 3
Phase-1 volume fraction = -4.76236e+10  Min(alpha.water) = -1.50918e+14  Max(alpha.water) = 3.70464e+12
MULES: Correcting alpha.water
MULES: Correcting alpha.water
Liquid phase volume fraction = -4.76236e+10  Min(alpha.water) = -1.50918e+14  Max(alpha.water) = 3.70464e+12
GAMG:  Solving for p_rgh, Initial residual = 5.23385e-52, Final residual = 5.23385e-52, No Iterations 0
GAMG:  Solving for p_rgh, Initial residual = 7.0528e-52, Final residual = 7.0528e-52, No Iterations 0
GAMGPCG:  Solving for p_rgh, Initial residual = 8.10931e-52, Final residual = 8.10931e-52, No Iterations 0
ExecutionTime = 145.64 s  ClockTime = 149 s

Courant Number mean: 3.29369 max: 3384.02
deltaT = 7.74349e-102
Time = 0.00126341

PIMPLE: iteration 1
smoothSolver:  Solving for alpha.water, Initial residual = 0.0413526, Final residual = 6.0497e-13, No Iterations 3
Phase-1 volume fraction = -4.98161e+10  Min(alpha.water) = -1.50917e+14  Max(alpha.water) = 3.70463e+12
MULES: Correcting alpha.water
MULES: Correcting alpha.water
Liquid phase volume fraction = -4.98161e+10  Min(alpha.water) = -1.50917e+14  Max(alpha.water) = 3.70463e+12
GAMG:  Solving for p_rgh, Initial residual = 1.23346e-48, Final residual = 1.23346e-48, No Iterations 0
GAMG:  Solving for p_rgh, Initial residual = 2.61698e-48, Final residual = 2.61698e-48, No Iterations 0
GAMGPCG:  Solving for p_rgh, Initial residual = 3.1388e-48, Final residual = 3.1388e-48, No Iterations 0
ExecutionTime = 145.67 s  ClockTime = 149 s

Courant Number mean: 17.4642 max: 14015.6
deltaT = 2.76246e-105
Time = 0.00126341

PIMPLE: iteration 1
smoothSolver:  Solving for alpha.water, Initial residual = 0.0192721, Final residual = 1.75648e-17, No Iterations 3
Phase-1 volume fraction = -4.88575e+10  Min(alpha.water) = -1.50879e+14  Max(alpha.water) = 3.70463e+12
MULES: Correcting alpha.water
MULES: Correcting alpha.water
Liquid phase volume fraction = -4.88575e+10  Min(alpha.water) = -1.50879e+14  Max(alpha.water) = 3.70463e+12
GAMG:  Solving for p_rgh, Initial residual = 2.6815e-45, Final residual = 2.6815e-45, No Iterations 0
GAMG:  Solving for p_rgh, Initial residual = 4.56479e-45, Final residual = 4.56479e-45, No Iterations 0
GAMGPCG:  Solving for p_rgh, Initial residual = 4.97186e-45, Final residual = 4.97186e-45, No Iterations 0
ExecutionTime = 145.71 s  ClockTime = 149 s

Courant Number mean: 9.08384 max: 6643.98
deltaT = 2.07892e-108
Time = 0.00126341

PIMPLE: iteration 1
smoothSolver:  Solving for alpha.water, Initial residual = 0.00162938, Final residual = 3.58353e-17, No Iterations 3
Phase-1 volume fraction = -4.88646e+10  Min(alpha.water) = -1.50879e+14  Max(alpha.water) = 3.70463e+12
MULES: Correcting alpha.water
MULES: Correcting alpha.water
Liquid phase volume fraction = -4.88646e+10  Min(alpha.water) = -1.50879e+14  Max(alpha.water) = 3.70463e+12
GAMG:  Solving for p_rgh, Initial residual = 8.668e-43, Final residual = 8.668e-43, No Iterations 0
GAMG:  Solving for p_rgh, Initial residual = 1.2173e-42, Final residual = 1.2173e-42, No Iterations 0
GAMGPCG:  Solving for p_rgh, Initial residual = 1.50478e-42, Final residual = 1.50478e-42, No Iterations 0
ExecutionTime = 145.76 s  ClockTime = 149 s

Courant Number mean: 2.39894 max: 2262.72
deltaT = 4.59386e-111
Time = 0.00126341

PIMPLE: iteration 1
smoothSolver:  Solving for alpha.water, Initial residual = 0.000402674, Final residual = 2.12533e-11, No Iterations 3
Phase-1 volume fraction = -4.88466e+10  Min(alpha.water) = -1.50879e+14  Max(alpha.water) = 3.70463e+12
MULES: Correcting alpha.water
MULES: Correcting alpha.water
Liquid phase volume fraction = -4.88466e+10  Min(alpha.water) = -1.50879e+14  Max(alpha.water) = 3.70463e+12
GAMG:  Solving for p_rgh, Initial residual = 2.24403e-40, Final residual = 2.24403e-40, No Iterations 0
GAMG:  Solving for p_rgh, Initial residual = 2.59897e-40, Final residual = 2.59897e-40, No Iterations 0
GAMGPCG:  Solving for p_rgh, Initial residual = 2.7816e-40, Final residual = 2.7816e-40, No Iterations 0
ExecutionTime = 145.79 s  ClockTime = 149 s

Courant Number mean: 0.735536 max: 930.786
deltaT = 2.46773e-113
Time = 0.00126341

PIMPLE: iteration 1
smoothSolver:  Solving for alpha.water, Initial residual = 1.8722e-05, Final residual = 9.15962e-11, No Iterations 2
Phase-1 volume fraction = -4.88466e+10  Min(alpha.water) = -1.50879e+14  Max(alpha.water) = 3.70463e+12
MULES: Correcting alpha.water
MULES: Correcting alpha.water
Liquid phase volume fraction = -4.88466e+10  Min(alpha.water) = -1.50879e+14  Max(alpha.water) = 3.70463e+12
GAMG:  Solving for p_rgh, Initial residual = 5.5009e-37, Final residual = 5.5009e-37, No Iterations 0
GAMG:  Solving for p_rgh, Initial residual = 7.31019e-37, Final residual = 7.31019e-37, No Iterations 0
GAMGPCG:  Solving for p_rgh, Initial residual = 8.93728e-37, Final residual = 8.93728e-37, No Iterations 0
ExecutionTime = 145.81 s  ClockTime = 149 s

Courant Number mean: 16.6877 max: 20470.9
deltaT = 6.0274e-117
Time = 0.00126341

PIMPLE: iteration 1
smoothSolver:  Solving for alpha.water, Initial residual = 5.26046e-06, Final residual = 3.02958e-09, No Iterations 2
Phase-1 volume fraction = -4.88464e+10  Min(alpha.water) = -1.50879e+14  Max(alpha.water) = 3.70463e+12
MULES: Correcting alpha.water
MULES: Correcting alpha.water
Liquid phase volume fraction = -4.88464e+10  Min(alpha.water) = -1.50879e+14  Max(alpha.water) = 3.70463e+12
GAMG:  Solving for p_rgh, Initial residual = 5.22856e-34, Final residual = 5.22856e-34, No Iterations 0
GAMG:  Solving for p_rgh, Initial residual = 7.02238e-34, Final residual = 7.02238e-34, No Iterations 0
GAMGPCG:  Solving for p_rgh, Initial residual = 8.51967e-34, Final residual = 8.51967e-34, No Iterations 0
ExecutionTime = 145.86 s  ClockTime = 149 s

Courant Number mean: 3.38003 max: 3521.24
deltaT = 8.55864e-120
Time = 0.00126341

PIMPLE: iteration 1
smoothSolver:  Solving for alpha.water, Initial residual = 1.90693e-06, Final residual = 1.68685e-12, No Iterations 2
Phase-1 volume fraction = -4.88464e+10  Min(alpha.water) = -1.50879e+14  Max(alpha.water) = 3.70463e+12
MULES: Correcting alpha.water
MULES: Correcting alpha.water
Liquid phase volume fraction = -4.88464e+10  Min(alpha.water) = -1.50879e+14  Max(alpha.water) = 3.70463e+12
GAMG:  Solving for p_rgh, Initial residual = 1.58879e-31, Final residual = 1.58879e-31, No Iterations 0
GAMG:  Solving for p_rgh, Initial residual = 2.29391e-31, Final residual = 2.29391e-31, No Iterations 0
GAMGPCG:  Solving for p_rgh, Initial residual = 2.90858e-31, Final residual = 2.90858e-31, No Iterations 0
ExecutionTime = 145.9 s  ClockTime = 149 s

Courant Number mean: 1.74813 max: 2220.85
deltaT = 1.92688e-122
Time = 0.00126341

PIMPLE: iteration 1
smoothSolver:  Solving for alpha.water, Initial residual = 4.67266e-07, Final residual = 2.5575e-12, No Iterations 2
Phase-1 volume fraction = -4.88464e+10  Min(alpha.water) = -1.50879e+14  Max(alpha.water) = 3.70463e+12
MULES: Correcting alpha.water
MULES: Correcting alpha.water
Liquid phase volume fraction = -4.88464e+10  Min(alpha.water) = -1.50879e+14  Max(alpha.water) = 3.70463e+12
GAMG:  Solving for p_rgh, Initial residual = 2.60322e-29, Final residual = 2.60322e-29, No Iterations 0
GAMG:  Solving for p_rgh, Initial residual = 3.3902e-29, Final residual = 3.3902e-29, No Iterations 0
GAMGPCG:  Solving for p_rgh, Initial residual = 3.86601e-29, Final residual = 3.86601e-29, No Iterations 0
ExecutionTime = 145.93 s  ClockTime = 149 s

Courant Number mean: 0.486739 max: 675.607
deltaT = 1.42604e-124
Time = 0.00126341

PIMPLE: iteration 1
smoothSolver:  Solving for alpha.water, Initial residual = 9.02018e-08, Final residual = 2.1906e-09, No Iterations 1
Phase-1 volume fraction = -4.88464e+10  Min(alpha.water) = -1.50879e+14  Max(alpha.water) = 3.70463e+12
MULES: Correcting alpha.water
MULES: Correcting alpha.water
Liquid phase volume fraction = -4.88464e+10  Min(alpha.water) = -1.50879e+14  Max(alpha.water) = 3.70463e+12
GAMG:  Solving for p_rgh, Initial residual = 2.72449e-25, Final residual = 2.72449e-25, No Iterations 0
GAMG:  Solving for p_rgh, Initial residual = 5.06366e-25, Final residual = 5.06366e-25, No Iterations 0
GAMGPCG:  Solving for p_rgh, Initial residual = 8.76909e-25, Final residual = 8.76909e-25, No Iterations 0
ExecutionTime = 145.96 s  ClockTime = 149 s

Courant Number mean: 81.7823 max: 89781.7
deltaT = 7.94169e-129
Time = 0.00126341

PIMPLE: iteration 1
smoothSolver:  Solving for alpha.water, Initial residual = 6.35281e-08, Final residual = 2.16658e-09, No Iterations 1
Phase-1 volume fraction = -4.88464e+10  Min(alpha.water) = -1.50879e+14  Max(alpha.water) = 3.70463e+12
MULES: Correcting alpha.water
MULES: Correcting alpha.water
Liquid phase volume fraction = -4.88464e+10  Min(alpha.water) = -1.50879e+14  Max(alpha.water) = 3.70463e+12
GAMG:  Solving for p_rgh, Initial residual = 1.38806e-21, Final residual = 1.38806e-21, No Iterations 0
GAMG:  Solving for p_rgh, Initial residual = 1.58017e-21, Final residual = 1.58017e-21, No Iterations 0
GAMGPCG:  Solving for p_rgh, Initial residual = 1.6559e-21, Final residual = 1.6559e-21, No Iterations 0
ExecutionTime = 145.99 s  ClockTime = 149 s

Courant Number mean: 5.96959 max: 23921.1
deltaT = 1.65998e-132
Time = 0.00126341

PIMPLE: iteration 1
smoothSolver:  Solving for alpha.water, Initial residual = 4.64183e-09, Final residual = 4.64183e-09, No Iterations 0
Phase-1 volume fraction = -4.88464e+10  Min(alpha.water) = -1.50879e+14  Max(alpha.water) = 3.70463e+12
MULES: Correcting alpha.water
MULES: Correcting alpha.water
Liquid phase volume fraction = -4.88464e+10  Min(alpha.water) = -1.50879e+14  Max(alpha.water) = 3.70463e+12
GAMG:  Solving for p_rgh, Initial residual = 5.81464e-19, Final residual = 5.81464e-19, No Iterations 0
GAMG:  Solving for p_rgh, Initial residual = 7.58197e-19, Final residual = 7.58197e-19, No Iterations 0
GAMGPCG:  Solving for p_rgh, Initial residual = 1.06134e-18, Final residual = 1.06134e-18, No Iterations 0
ExecutionTime = 146.02 s  ClockTime = 149 s

Courant Number mean: 1.25861 max: 2000.17
deltaT = 4.1496e-135
Time = 0.00126341

PIMPLE: iteration 1
smoothSolver:  Solving for alpha.water, Initial residual = 5.70368e-09, Final residual = 5.70368e-09, No Iterations 0
Phase-1 volume fraction = -4.88464e+10  Min(alpha.water) = -1.50879e+14  Max(alpha.water) = 3.70463e+12
MULES: Correcting alpha.water
MULES: Correcting alpha.water
Liquid phase volume fraction = -4.88464e+10  Min(alpha.water) = -1.50879e+14  Max(alpha.water) = 3.70463e+12
GAMG:  Solving for p_rgh, Initial residual = 7.01402e-14, Final residual = 7.01402e-14, No Iterations 0
GAMG:  Solving for p_rgh, Initial residual = 7.49142e-14, Final residual = 7.49142e-14, No Iterations 0
GAMGPCG:  Solving for p_rgh, Initial residual = 7.93874e-14, Final residual = 7.93874e-14, No Iterations 0
ExecutionTime = 146.05 s  ClockTime = 149 s

Courant Number mean: 144.195 max: 731482
deltaT = 2.83644e-140
Time = 0.00126341

PIMPLE: iteration 1
smoothSolver:  Solving for alpha.water, Initial residual = 9.15823e-10, Final residual = 9.15823e-10, No Iterations 0
Phase-1 volume fraction = -4.88464e+10  Min(alpha.water) = -1.50879e+14  Max(alpha.water) = 3.70463e+12
MULES: Correcting alpha.water
MULES: Correcting alpha.water
Liquid phase volume fraction = -4.88464e+10  Min(alpha.water) = -1.50879e+14  Max(alpha.water) = 3.70463e+12
GAMG:  Solving for p_rgh, Initial residual = 4.06589e-13, Final residual = 4.06589e-13, No Iterations 0
GAMG:  Solving for p_rgh, Initial residual = 4.36944e-13, Final residual = 4.36944e-13, No Iterations 0
GAMGPCG:  Solving for p_rgh, Initial residual = 4.30305e-13, Final residual = 4.30305e-13, No Iterations 0
ExecutionTime = 146.08 s  ClockTime = 149 s

Courant Number mean: 0.00825079 max: 18.2446
deltaT = 7.77336e-141
Time = 0.00126341

PIMPLE: iteration 1
smoothSolver:  Solving for alpha.water, Initial residual = 2.22701e-09, Final residual = 2.22701e-09, No Iterations 0
Phase-1 volume fraction = -4.88464e+10  Min(alpha.water) = -1.50879e+14  Max(alpha.water) = 3.70463e+12
MULES: Correcting alpha.water
MULES: Correcting alpha.water
Liquid phase volume fraction = -4.88464e+10  Min(alpha.water) = -1.50879e+14  Max(alpha.water) = 3.70463e+12